file 34870049 1596049503                                        
version 2
run General-0-20200729-11:06:21-24792
attr configname General
attr datetime 20200729-11:06:21
attr experiment General
attr inifile omnetpp.ini
attr iterationvars ""
attr iterationvarsf ""
attr measurement ""
attr network sim1.src.TestScenario
attr processid 24792
attr repetition 0
attr replication #0
attr resultdir results
attr runnumber 0
attr seedset 0
param *.playgroundSizeX 1000m
param *.playgroundSizeY 1000m
param *.playgroundSizeZ 50m
param *.manager.moduleType "\"exploited=org.car2x.veins.nodes.Car *=org.car2x.veins.nodes.Car\""
param *.manager.moduleName "\"exploited=exploited *=uninfected\""
param *.manager.updateInterval 1s
param *.manager.host "\"localhost\""
param *.manager.port 9999
param *.manager.autoShutdown true
param *.manager.launchConfig "xmldoc(\"demo.launchd.xml\")"
param *.connectionManager.sendDirect true
param *.connectionManager.maxInterfDist 300m
param *.connectionManager.drawMaxIntfDist false
param *.**.nic.mac1609_4.useServiceChannel false
param *.**.nic.mac1609_4.txPower 20mW
param *.**.nic.mac1609_4.bitrate 6Mbps
param *.**.nic.phy80211p.sensitivity -89dBm
param *.**.nic.phy80211p.useThermalNoise true
param *.**.nic.phy80211p.thermalNoise -110dBm
param *.**.nic.phy80211p.decider "xmldoc(\"config.xml\")"
param *.**.nic.phy80211p.analogueModels "xmldoc(\"config.xml\")"
param *.**.nic.phy80211p.usePropagationDelay true
param *.**.nic.phy80211p.antenna "xmldoc(\"antenna.xml\", \"/root/Antenna[@id='monopole']\")"
param *.uninfected[*].applType "\"sim1.src.Uninfected\""
param *.uninfected[*].appl.dataPriority 2
param *.uninfected[*].appl.headerLength "80 bit"
param *.uninfected[*].appl.sendBeacons false
param *.uninfected[*].appl.dataOnSch false
param *.uninfected[*].appl.beaconInterval 1s
param *.uninfected[*].veinsmobilityType.debug true
param *.uninfected[*].veinsmobility.x 0
param *.uninfected[*].veinsmobility.y 0
param *.uninfected[*].veinsmobility.z 0
param *.exploited[*].applType "\"sim1.src.Exploited\""
param *.exploited[*].appl.dataPriority 2
param *.exploited[*].appl.headerLength "80 bit"
param *.exploited[*].appl.sendBeacons false
param *.exploited[*].appl.dataOnSch false
param *.exploited[*].appl.beaconInterval 1s
param *.exploited[*].veinsmobilityType.debug true
param *.exploited[*].veinsmobility.x 0
param *.exploited[*].veinsmobility.y 0
param *.exploited[*].veinsmobility.z 0

vector 0 TestScenario.uninfected[0].veinsmobility posx ETV
0	50071 2012 2 100498 1 62 62 238.33130028169 823.4 36298.571700781 23940684.781444
vector 1 TestScenario.uninfected[0].veinsmobility posy ETV
1	48903 1168 2 100498 1 62 62 26.6 192.08101890267 2746.7124371782 225994.65701167
vector 2 TestScenario.exploited[1].veinsmobility posx ETV
2	728247 3648 11 904426 2 157 156 26.6 823.4 41877.381298142 24771528.063891
vector 3 TestScenario.exploited[1].veinsmobility posy ETV
3	724618 3629 11 904426 2 157 156 26.6 823.4 44820.681943305 27659620.305676
vector 4 TestScenario.uninfected[0].veinsmobility speed ETV
4	47249 1654 11 100498 2 62 61 3.722822103166 13.882528818171 768.59094348799 10132.928913764
vector 5 TestScenario.exploited[2].veinsmobility posx ETV
5	67762 2024 28 136756 3 70 68 26.6 423.4 15947.236250142 5505025.5437571
vector 6 TestScenario.exploited[2].veinsmobility posy ETV
6	66234 1528 28 136756 3 70 68 438.34775942317 623.4 39296.61419584 22980496.812964
vector 7 TestScenario.uninfected[0].veinsmobility acceleration ETV
7	45502 1747 28 100498 3 62 60 -4.5 2.1980462150532 10.159342883943 73.087031582527
vector 8 TestScenario.uninfected[0].veinsmobility co2emission ETV
8	43896 1606 28 100498 3 62 60 0.973 8.4055474696849 161.78611079412 615.5133542793
vector 9 TestScenario.exploited[1].veinsmobility speed ETV
9	720179 4439 28 904426 3 157 155 3.8163833970251 13.886791930492 1970.1311144309 26019.432278579
vector 10 TestScenario.exploited[3].veinsmobility posx ETV
10	25903 4451 53 59276 4 51 48 56.017349427484 226.6 9721.6178020339 2076074.3129887
vector 11 TestScenario.exploited[3].veinsmobility posy ETV
11	24686 1217 53 59276 4 51 48 223.4 611.63399887184 17706.209493364 7502897.4719228
vector 12 TestScenario.exploited[1].veinsmobility acceleration ETV
12	715288 4891 53 904426 4 157 154 -4.4791197805922 2.2091454149294 9.9429188344551 191.13451656513
vector 13 TestScenario.exploited[1].veinsmobility co2emission ETV
13	710853 4435 53 904426 4 157 154 0.973 8.8891102605953 394.76328274029 1433.0446888653
vector 14 TestScenario.exploited[2].veinsmobility speed ETV
14	64324 1910 53 136756 4 70 67 3.3242105480023 13.884849982031 764.19476120875 9436.8176621887
vector 15 TestScenario.uninfected[4].veinsmobility posx ETV
15	151409 1708 132 219065 5 84 80 426.6 623.4 38940.318163559 19510124.57716
vector 16 TestScenario.uninfected[4].veinsmobility posy ETV
16	149280 2129 132 219065 5 84 80 226.6 811.65841929311 34022.203996822 17620627.231395
vector 17 TestScenario.exploited[2].veinsmobility acceleration ETV
17	62343 1981 132 136756 5 70 66 -4.4851412721979 2.5619180149538 9.8248675303342 155.34489628351
vector 18 TestScenario.exploited[2].veinsmobility co2emission ETV
18	60557 1786 132 136756 5 70 66 0.973 8.4488198628239 206.43939631549 952.55344726446
vector 19 TestScenario.exploited[3].veinsmobility speed ETV
19	23362 1324 132 59276 5 51 47 4.1837425248161 13.885528955983 574.90583079898 7433.3118238759
vector 20 TestScenario.uninfected[5].veinsmobility posx ETV
20	77214 1613 256 147329 6 72 67 623.4 793.50887628226 42979.833863907 27683292.731011
vector 21 TestScenario.uninfected[5].veinsmobility posy ETV
21	75423 1791 256 147329 6 72 67 31.356110592024 426.6 15950.445439535 5158221.2015714
vector 22 TestScenario.exploited[3].veinsmobility acceleration ETV
22	21978 1384 256 59276 6 51 46 -3.2945376434641 2.2269638898573 9.7017864311674 62.971760957384
vector 23 TestScenario.exploited[3].veinsmobility co2emission ETV
23	20717 1261 256 59276 6 51 46 0.973 8.0209828473551 130.93069370085 545.11498868343
vector 24 TestScenario.uninfected[4].veinsmobility speed ETV
24	147009 2271 256 219065 6 84 79 3.1408219406711 13.88578491183 969.93441793269 12592.512097773
vector 25 TestScenario.uninfected[6].veinsmobility posx ETV
25	511321 3449 341 707580 7 138 132 223.4 826.6 67988.461388133 43645526.248871
vector 26 TestScenario.uninfected[6].veinsmobility posy ETV
26	507960 3361 341 707580 7 138 132 230.6489579221 812.09247683632 61186.104278849 31404438.534432
vector 27 TestScenario.uninfected[4].veinsmobility acceleration ETV
27	144609 2400 341 219065 7 84 78 -4.1078938923078 2.1338141985494 9.7998437027606 107.84533089152
vector 28 TestScenario.uninfected[4].veinsmobility co2emission ETV
28	142423 2186 341 219065 7 84 78 0.973 8.5277197915998 212.50166586025 840.12844538342
vector 29 TestScenario.uninfected[5].veinsmobility speed ETV
29	73536 1887 341 147329 7 72 66 3.5229142080061 13.888138536529 764.77711750119 9645.5858562364
vector 30 TestScenario.uninfected[7].veinsmobility posx ETV
30	110639 2136 446 163709 8 75 68 426.6 619.13817160793 34676.03201237 18022614.881513
vector 31 TestScenario.uninfected[7].veinsmobility posy ETV
31	109179 1460 446 163709 8 75 68 623.4 823.4 47810.815703997 34155153.17796
vector 32 TestScenario.uninfected[5].veinsmobility acceleration ETV
32	71561 1975 446 147329 8 72 65 -3.2599454438367 2.2678219356248 9.8507971033621 110.84534168389
vector 33 TestScenario.uninfected[5].veinsmobility co2emission ETV
33	69786 1775 446 147329 8 72 65 0.973 8.9859220848101 185.63589333402 793.80847612605
vector 34 TestScenario.uninfected[6].veinsmobility speed ETV
34	504068 3892 446 707580 8 138 131 4.6570906794648e-014 13.883310567515 1362.2569314989 16454.620904409
vector 35 TestScenario.uninfected[8].veinsmobility posx ETV
35	93080 1923 593 158181 9 74 66 459.53387392504 811.64220992029 42230.317752939 27417719.199927
vector 36 TestScenario.uninfected[8].veinsmobility posy ETV
36	91513 1567 593 158181 9 74 66 23.4 423.4 15805.066968861 5613991.29961
vector 37 TestScenario.uninfected[6].veinsmobility acceleration ETV
37	500026 4042 593 707580 9 138 130 -4.4464363432479 2.590582782079 -0.13413149170564 298.95858161562
vector 38 TestScenario.uninfected[6].veinsmobility co2emission ETV
38	496528 3498 593 707580 9 138 130 0.973 9.0384960085859 366.1637107142 1648.9370690527
vector 39 TestScenario.uninfected[7].veinsmobility speed ETV
39	107249 1930 593 163709 9 75 67 3.5480744643509 13.884606163434 759.55786990777 9354.0969192003
vector 40 TestScenario.uninfected[9].veinsmobility posx ETV
40	36008 1498 775 96106 10 61 52 423.4 623.4 26798.268803043 14221838.320463
vector 41 TestScenario.uninfected[9].veinsmobility posy ETV
41	34683 1325 775 96106 10 61 52 438.35435812088 800.80486250648 31754.647969527 19815020.215448
vector 42 TestScenario.uninfected[7].veinsmobility acceleration ETV
42	105240 2009 775 163709 10 75 66 -4.4769508056279 2.1038419201807 10.080556923028 142.14986711398
vector 43 TestScenario.uninfected[7].veinsmobility co2emission ETV
43	103453 1787 775 163709 10 75 66 0.973 8.5009290629734 202.40847550816 923.87521379721
vector 44 TestScenario.uninfected[8].veinsmobility speed ETV
44	89639 1874 775 158181 10 74 65 3.6869534380149 13.88813461059 765.88004863767 9680.341258883
vector 45 TestScenario.exploited[10].veinsmobility posx ETV
45	130464 2887 1009 192493 11 80 70 226.6 811.61667995088 32788.173752286 18188562.951054
vector 46 TestScenario.exploited[10].veinsmobility posy ETV
46	128984 1480 1009 192493 11 80 70 453.18442306167 623.4 42486.958891949 25902925.968589
vector 47 TestScenario.uninfected[8].veinsmobility acceleration ETV
47	87674 1965 1009 158181 11 74 64 -3.227082061591 2.3903803224303 9.8701248581773 114.8170409449
vector 48 TestScenario.uninfected[8].veinsmobility co2emission ETV
48	85902 1772 1009 158181 11 74 64 0.973 8.4443281672841 186.04281916097 822.40748781545
vector 49 TestScenario.uninfected[9].veinsmobility speed ETV
49	33226 1457 1009 96106 11 61 51 3.5621496864848 13.885565712757 575.54844408175 7073.7407655355
vector 50 TestScenario.uninfected[11].veinsmobility posx ETV
50	119829 3243 1236 169315 12 76 65 226.6 419.33045742646 18363.73340106 5493434.986367
vector 51 TestScenario.uninfected[11].veinsmobility posy ETV
51	118298 1531 1236 169315 12 76 65 454.57255892498 826.6 48460.714471648 37014924.513489
vector 52 TestScenario.uninfected[9].veinsmobility acceleration ETV
52	31717 1509 1236 96106 12 61 50 -3.4458686307544 2.0963443885594 9.744832877017 109.53328993963
vector 53 TestScenario.uninfected[9].veinsmobility co2emission ETV
53	30354 1363 1236 96106 12 61 50 0.973 8.3916367649199 156.60312763314 725.2086892143
vector 54 TestScenario.exploited[10].veinsmobility speed ETV
54	126990 1994 1236 192493 12 80 69 3.4181542156034 13.872613875826 771.36253065184 9432.4326148559
vector 55 TestScenario.uninfected[12].veinsmobility posx ETV
55	102098 1355 1515 163709 13 75 63 623.4 802.33857327834 40536.980885874 26212772.606197
vector 56 TestScenario.uninfected[12].veinsmobility posy ETV
56	100406 1692 1515 163709 13 75 63 38.36469348464 626.6 24629.356915969 12380483.029424
vector 57 TestScenario.exploited[10].veinsmobility acceleration ETV
57	124911 2079 1515 192493 13 80 68 -3.1574405016875 2.4827399817482 9.8771373320744 156.42223078491
vector 58 TestScenario.exploited[10].veinsmobility co2emission ETV
58	123072 1839 1515 192493 13 80 68 0.973 8.7497070367659 211.79553043169 1008.0890086954
vector 59 TestScenario.uninfected[11].veinsmobility speed ETV
59	116460 1838 1515 169315 13 76 64 3.5885107131671 13.8882083526 760.75215976031 9693.4669029774
vector 60 TestScenario.exploited[13].veinsmobility posx ETV
60	42852 1044 1765 100498 14 62 49 26.6 200.32646624952 2507.7123103715 241219.20871925
vector 61 TestScenario.exploited[13].veinsmobility posy ETV
61	41611 1241 1765 100498 14 62 49 26.6 411.64691181547 8254.122900565 2374750.1320117
vector 62 TestScenario.uninfected[11].veinsmobility acceleration ETV
62	114531 1929 1765 169315 14 76 63 -4.442733806076 2.1352980377479 9.8267444164944 103.27732401855
vector 63 TestScenario.uninfected[11].veinsmobility co2emission ETV
63	112775 1756 1765 169315 14 76 63 0.973 8.6364354675409 180.84542705108 778.92522567452
vector 64 TestScenario.uninfected[12].veinsmobility speed ETV
64	98611 1795 1765 163709 14 75 62 3.3979703491307 13.888971277256 782.60921483239 10321.311258032
vector 65 TestScenario.uninfected[14].veinsmobility posx ETV
65	190595 2725 2073 251606 15 89 75 26.6 226.6 9077.1247580163 1615786.5741217
vector 66 TestScenario.uninfected[14].veinsmobility posy ETV
66	188806 1789 2073 251606 15 89 75 248.56891146506 623.4 37272.093268069 19491900.190148
vector 67 TestScenario.uninfected[12].veinsmobility acceleration ETV
67	96727 1884 2073 163709 15 75 61 -3.1645953616897 2.5194074766315 9.8561166362682 69.455453338279
vector 68 TestScenario.uninfected[12].veinsmobility co2emission ETV
68	95003 1724 2073 163709 15 75 61 0.973 8.5188668038463 163.6256012772 633.57481163734
vector 69 TestScenario.exploited[13].veinsmobility speed ETV
69	40238 1373 2073 100498 15 62 48 3.8004325452788 13.889763465817 577.0995793387 7385.8884028378
vector 70 TestScenario.uninfected[15].veinsmobility posx ETV
70	245374 2735 2451 370987 16 105 90 26.6 611.63982373774 23791.052578936 9249867.9453602
vector 71 TestScenario.uninfected[15].veinsmobility posy ETV
71	243296 2078 2451 370987 16 105 90 423.4 623.4 44993.195638052 23145598.906635
vector 72 TestScenario.exploited[13].veinsmobility acceleration ETV
72	38816 1422 2451 100498 16 62 47 -4.4403202148108 2.0141765621072 9.9824619018994 69.669974179969
vector 73 TestScenario.exploited[13].veinsmobility co2emission ETV
73	37506 1310 2451 100498 16 62 47 0.973 8.4289382751256 133.71842705155 551.18046170236
vector 74 TestScenario.uninfected[14].veinsmobility speed ETV
74	186658 2148 2451 251606 16 89 74 0.26 13.888798569322 771.28406644147 9439.3565159614
vector 75 TestScenario.uninfected[16].veinsmobility posx ETV
75	57139 3418 2888 108986 17 64 48 223.4 611.61862955957 17731.676416655 7523390.1329379
vector 76 TestScenario.uninfected[16].veinsmobility posy ETV
76	56117 1022 2888 108986 17 64 48 23.4 192.96240020814 2271.8853321834 213943.70683357
vector 77 TestScenario.uninfected[14].veinsmobility acceleration ETV
77	184426 2232 2888 251606 17 89 73 -4.256535522226 2.4381554583623 9.9260645388528 175.89922240512
vector 78 TestScenario.uninfected[14].veinsmobility co2emission ETV
78	182451 1975 2888 251606 17 89 73 0.973 9.347352072338 218.09433516549 1017.3262914704
vector 79 TestScenario.uninfected[15].veinsmobility speed ETV
79	240683 2613 2888 370987 17 105 89 0.53028087645489 13.887033339364 972.11039406909 11872.517335436
vector 80 TestScenario.exploited[17].veinsmobility posx ETV
80	384852 3382 3333 566073 18 125 108 226.6 623.4 38581.652864679 16775847.020493
vector 81 TestScenario.exploited[17].veinsmobility posy ETV
81	381936 2916 3333 566073 18 125 108 54.899124083206 823.4 65161.451835142 45610795.53139
vector 82 TestScenario.uninfected[15].veinsmobility acceleration ETV
82	237979 2704 3333 370987 18 105 88 -4.5 2.469038806702 9.7286091054982 204.30342625054
vector 83 TestScenario.uninfected[15].veinsmobility co2emission ETV
83	235564 2415 3333 370987 18 105 88 0.973 8.2486857942535 265.32231377948 1192.5350112584
vector 84 TestScenario.uninfected[16].veinsmobility speed ETV
84	54765 1352 3333 108986 18 64 47 4.1265234313304 13.884564622382 573.90172581047 7414.9934040689
vector 85 TestScenario.uninfected[18].veinsmobility posx ETV
85	140648 1775 4022 212263 19 83 65 223.4 411.64642465614 16641.550171235 4485549.4286801
vector 86 TestScenario.uninfected[18].veinsmobility posy ETV
86	138924 1724 4022 212263 19 83 65 430.96713934101 823.4 42274.572653379 28922811.310567
vector 87 TestScenario.uninfected[16].veinsmobility acceleration ETV
87	53355 1410 4022 108986 19 64 46 -3.3603936933062 2.3389914700272 9.7502676602146 65.311328310736
vector 88 TestScenario.uninfected[16].veinsmobility co2emission ETV
88	52083 1272 4022 108986 19 64 46 0.973 8.2358515529932 132.13314559214 558.97561094999
vector 89 TestScenario.exploited[17].veinsmobility speed ETV
89	378764 3172 4022 566073 19 125 107 3.8119856966925 13.889776994304 1365.6743398486 18081.355672589
vector 90 TestScenario.exploited[19].veinsmobility posx ETV
90	691000 3517 4632 893481 20 156 137 46.804267746429 826.6 88827.259277636 65274231.201903
vector 91 TestScenario.exploited[19].veinsmobility posy ETV
91	687707 3293 4632 893481 20 156 137 23.4 826.6 42443.198645968 27161855.202112
vector 92 TestScenario.exploited[17].veinsmobility acceleration ETV
92	375376 3388 4632 566073 20 125 106 -4.4756956676301 2.3511123750755 9.8732243897501 103.94926509178
vector 93 TestScenario.exploited[17].veinsmobility co2emission ETV
93	372301 3075 4632 566073 20 125 106 0.973 8.560646659091 268.37726543929 955.3939249301
vector 94 TestScenario.uninfected[18].veinsmobility speed ETV
94	137061 1863 4632 212263 20 83 64 3.5314026828133 13.884479003639 759.0785761716 9652.2929232654
vector 95 TestScenario.uninfected[20].veinsmobility posx ETV
95	233508 2056 5327 362725 21 104 84 623.4 826.6 64521.375562501 50148631.25524
vector 96 TestScenario.uninfected[20].veinsmobility posy ETV
96	231215 2293 5327 362725 21 104 84 23.4 419.34334268659 15654.654701274 4513846.1871084
vector 97 TestScenario.uninfected[18].veinsmobility acceleration ETV
97	135117 1944 5327 212263 21 83 63 -4.4119858184466 2.121022433578 9.8149388992439 106.75317627152
vector 98 TestScenario.uninfected[18].veinsmobility co2emission ETV
98	133351 1766 5327 212263 21 83 63 0.973 8.4716497636948 181.39818842481 770.07811986198
vector 99 TestScenario.exploited[19].veinsmobility speed ETV
99	683629 4078 5327 893481 21 156 136 4.1836085551388 13.889320736504 1785.8191298764 23978.023760355
vector 100 TestScenario.exploited[21].veinsmobility posx ETV
100	180116 2335 6040 245011 22 88 67 238.35795385615 803.26641749478 31852.447125903 16641355.659605
vector 101 TestScenario.exploited[21].veinsmobility posy ETV
101	178582 1534 6040 245011 22 88 67 26.6 226.6 7479.5743143171 1384935.0511862
vector 102 TestScenario.exploited[19].veinsmobility acceleration ETV
102	679138 4491 6040 893481 22 156 135 -4.4652417255635 2.1007251427858 9.6865954769619 100.10795362949
vector 103 TestScenario.exploited[19].veinsmobility co2emission ETV
103	675016 4122 6040 893481 22 156 135 0.973 8.7095743379261 326.07050217024 1062.9280352331
vector 104 TestScenario.uninfected[20].veinsmobility speed ETV
104	228703 2512 6040 362725 22 104 83 3.6168250259563 13.885681311544 973.92490287806 12306.802483762
vector 105 TestScenario.uninfected[22].veinsmobility posx ETV
105	162796 2422 6837 231957 23 86 64 431.5719659363 626.6 35723.273188053 20270707.301767
vector 106 TestScenario.uninfected[22].veinsmobility posy ETV
106	161308 1488 6837 231957 23 86 64 448.94180414597 626.6 38783.156173683 23626800.770519
vector 107 TestScenario.uninfected[20].veinsmobility acceleration ETV
107	226070 2633 6837 362725 23 104 82 -4.4888674085548 2.5239208586863 9.838329460112 151.21609144153
vector 108 TestScenario.uninfected[20].veinsmobility co2emission ETV
108	223684 2386 6837 362725 23 104 82 0.973 8.3662011473238 237.74106637366 1024.1585386166
vector 109 TestScenario.exploited[21].veinsmobility speed ETV
109	176582 2000 6837 245011 23 88 66 3.7415023325596 13.889716980581 777.89076161766 9837.2584810374
vector 110 TestScenario.uninfected[23].veinsmobility posx ETV
110	16407 4310 7766 30111 24 39 16 452.54479423958 611.61766712898 8764.6970416121 4846661.9481102
vector 111 TestScenario.uninfected[23].veinsmobility posy ETV
111	16090 317 7766 30111 24 39 16 823.4 823.4 13174.4 10847800.96
vector 112 TestScenario.exploited[21].veinsmobility acceleration ETV
112	174497 2085 7766 245011 24 88 65 -3.1841126369413 2.5811343186698 9.8760831710512 112.15783691778
vector 113 TestScenario.exploited[21].veinsmobility co2emission ETV
113	172611 1886 7766 245011 24 88 65 0.973 8.5475375638878 188.10960921435 804.73445270522
vector 114 TestScenario.uninfected[22].veinsmobility speed ETV
114	159440 1868 7766 231957 24 86 63 0 13.889645525469 571.39179092508 6800.820544613
vector 115 TestScenario.uninfected[24].veinsmobility posx ETV
115	84619 1283 8637 152604 25 73 49 23.4 26.6 1209.08856707 29952.316197627
vector 116 TestScenario.uninfected[24].veinsmobility posy ETV
116	83142 1477 8637 152604 25 73 49 430.64428353501 796.95004406624 28065.537423802 16604986.886347
vector 117 TestScenario.uninfected[22].veinsmobility acceleration ETV
117	157514 1926 8637 231957 25 86 62 -3.1169624830335 2.1260864629899 9.9579205554069 125.78471724459
vector 118 TestScenario.uninfected[22].veinsmobility co2emission ETV
118	155815 1699 8637 231957 25 86 62 0.973 8.6405253665239 173.11320420969 764.67121132053
vector 119 TestScenario.uninfected[23].veinsmobility speed ETV
119	15645 445 8637 30111 25 39 15 4.0277950379694 13.878134806112 178.11467811615 2267.4349855542
vector 120 TestScenario.uninfected[25].veinsmobility posx ETV
120	623647 3549 9603 840126 26 151 126 26.6 819.1962004034 48650.320524871 27911606.978956
vector 121 TestScenario.uninfected[25].veinsmobility posy ETV
121	620617 3030 9603 840126 26 151 126 26.6 226.6 21665.378474768 4500819.7450374
vector 122 TestScenario.uninfected[23].veinsmobility acceleration ETV
122	15207 438 9603 30111 26 39 14 -0.09373022872256 2.0943918044725 9.8061608840758 18.728260891895
vector 123 TestScenario.uninfected[23].veinsmobility co2emission ETV
123	14788 419 9603 30111 26 39 14 1.7046288362581 7.8248594772988 50.054110153398 244.29796694799
vector 124 TestScenario.uninfected[24].veinsmobility speed ETV
124	81704 1438 9603 152604 26 73 48 3.5104365916854 13.887267420811 567.22068513581 7251.1339140952
vector 125 TestScenario.uninfected[26].veinsmobility posx ETV
125	203647 2037 10691 279609 27 93 67 226.6 423.4 21884.42668732 7601641.2012245
vector 126 TestScenario.uninfected[26].veinsmobility posy ETV
126	201916 1731 10691 279609 27 93 67 226.6 423.4 21576.20423825 7395044.6783446
vector 127 TestScenario.uninfected[24].veinsmobility acceleration ETV
127	80203 1501 10691 152604 27 73 47 -3.1358272929225 2.1922619395982 9.8950758426311 66.376622541488
vector 128 TestScenario.uninfected[24].veinsmobility co2emission ETV
128	78827 1376 10691 152604 27 73 47 0.973 8.4948211522333 133.68296034901 562.81974527997
vector 129 TestScenario.uninfected[25].veinsmobility speed ETV
129	616739 3878 10691 840126 27 151 125 0.91916428723507 13.888027453998 1365.3114621709 16626.912583549
vector 130 TestScenario.uninfected[27].veinsmobility posx ETV
130	289598 2602 11826 465773 28 115 88 426.6 626.6 49362.982571454 28343069.694823
vector 131 TestScenario.uninfected[27].veinsmobility posy ETV
131	287047 2551 11826 465773 28 115 88 26.6 419.36650703141 17395.59154615 5196357.9746876
vector 132 TestScenario.uninfected[25].veinsmobility acceleration ETV
132	612716 4023 11826 840126 28 151 124 -4.4631356583543 2.4875910577946 9.7668108327512 291.7580079917
vector 133 TestScenario.uninfected[25].veinsmobility co2emission ETV
133	609136 3580 11826 840126 28 151 124 0.973 8.634116293067 370.29235789838 1702.7940134389
vector 134 TestScenario.uninfected[26].veinsmobility speed ETV
134	199909 2007 11826 279609 28 93 66 3.471656456008 13.889074614726 763.285560071 9452.2120307171
vector 135 TestScenario.uninfected[28].veinsmobility posx ETV
135	312824 2311 13052 495336 29 118 90 223.4 418.87274966443 24689.402676597 7204658.4696776
vector 136 TestScenario.uninfected[28].veinsmobility posy ETV
136	310440 2384 13052 495336 29 118 90 231.13729207091 626.6 44595.823937807 24112719.316364
vector 137 TestScenario.uninfected[26].veinsmobility acceleration ETV
137	197838 2071 13052 279609 29 93 65 -4.4877830222831 2.2372103413995 9.9335805788486 146.50158425473
vector 138 TestScenario.uninfected[26].veinsmobility co2emission ETV
138	195972 1866 13052 279609 29 93 65 0.973 8.8894433936159 204.40838510188 979.03285387183
vector 139 TestScenario.uninfected[27].veinsmobility speed ETV
139	284386 2661 13052 465773 29 115 87 0.26 13.885001208445 961.72542852502 12025.456316729
vector 140 TestScenario.uninfected[29].veinsmobility posx ETV
140	263654 3578 14248 413141 30 110 81 223.4 596.01527850302 25353.911574585 8895369.0813052
vector 141 TestScenario.uninfected[29].veinsmobility posy ETV
141	261627 2027 14248 413141 30 110 81 423.4 826.6 52609.357461717 36601593.067323
vector 142 TestScenario.uninfected[27].veinsmobility acceleration ETV
142	281593 2793 14248 465773 30 115 86 -4.3926887232196 2.2079612091796 9.8484123017714 176.75087125696
vector 143 TestScenario.uninfected[27].veinsmobility co2emission ETV
143	279092 2501 14248 465773 30 115 86 0.973 9.2673538901934 249.47958643289 1120.3468622102
vector 144 TestScenario.uninfected[28].veinsmobility speed ETV
144	307699 2741 14248 495336 30 118 89 0.43319010451029 13.888177898286 955.30861676697 11794.783515027
vector 145 TestScenario.uninfected[30].veinsmobility posx ETV
145	576636 3907 16116 770152 31 144 114 231.60025128668 623.4 57735.410956479 31358718.561201
vector 146 TestScenario.uninfected[30].veinsmobility posy ETV
146	573721 2915 16116 770152 31 144 114 226.6 826.6 68326.229747028 47909351.757765
vector 147 TestScenario.uninfected[28].veinsmobility acceleration ETV
147	304858 2841 16116 495336 31 118 88 -3.3783639146978 2.4305844871071 9.9135918961726 172.62495156261
vector 148 TestScenario.uninfected[28].veinsmobility co2emission ETV
148	302310 2548 16116 495336 31 118 88 0.973 9.2240340914013 247.88609688351 1058.1510085974
vector 149 TestScenario.uninfected[29].veinsmobility speed ETV
149	259177 2450 16116 413141 31 110 80 3.7136934412274 13.888215186808 976.46244273384 12611.404537774
vector 150 TestScenario.uninfected[31].veinsmobility posx ETV
150	440346 3276 17619 610490 32 129 98 623.4 826.6 74160.66855565 56822637.665764
vector 151 TestScenario.uninfected[31].veinsmobility posy ETV
151	437617 2729 17619 610490 32 129 98 23.4 626.6 36835.492668792 18904687.247323
vector 152 TestScenario.uninfected[29].veinsmobility acceleration ETV
152	256599 2578 17619 413141 32 110 79 -3.4368770029483 2.249813358509 9.6591766823776 108.7112204489
vector 153 TestScenario.uninfected[29].veinsmobility co2emission ETV
153	254257 2342 17619 413141 32 110 79 0.973 8.9388019651013 214.84844957398 847.59214272093
vector 154 TestScenario.uninfected[30].veinsmobility speed ETV
154	570220 3501 17619 770152 32 144 113 3.5831180405035 13.889993982937 1358.2090757592 17462.524153593
vector 155 TestScenario.uninfected[32].veinsmobility posx ETV
155	418262 2845 19122 600084 33 128 96 238.3887828938 626.6 52029.9719239 29631565.04832
vector 156 TestScenario.uninfected[32].veinsmobility posy ETV
156	415751 2511 19122 600084 33 128 96 223.4 826.6 56554.280703383 38960433.758233
vector 157 TestScenario.uninfected[30].veinsmobility acceleration ETV
157	566521 3699 19122 770152 33 144 112 -3.3051787518795 2.4059712650301 9.8756277915307 156.3126745134
vector 158 TestScenario.uninfected[30].veinsmobility co2emission ETV
158	563177 3344 19122 770152 33 144 112 0.973 8.3834092175684 298.29320780988 1157.3518689381
vector 159 TestScenario.uninfected[31].veinsmobility speed ETV
159	434617 3000 19122 610490 33 129 97 3.5631574340943 13.889281753399 1171.2855124392 14984.486256441
vector 160 TestScenario.uninfected[33].veinsmobility posx ETV
160	276733 2359 21050 454657 34 114 81 630.87735553473 826.6 63271.655959018 49787883.176763
vector 161 TestScenario.uninfected[33].veinsmobility posy ETV
161	274591 2142 21050 454657 34 114 81 23.4 611.63318202506 16907.656368928 7052274.4515296
vector 162 TestScenario.uninfected[31].veinsmobility acceleration ETV
162	431464 3153 21050 610490 34 129 96 -3.4091806296028 2.2026882917318 9.9537710838253 144.16234743087
vector 163 TestScenario.uninfected[31].veinsmobility co2emission ETV
163	428621 2843 21050 610490 34 129 96 0.973 8.5745371931083 264.08883482675 1069.3253795453
vector 164 TestScenario.uninfected[32].veinsmobility speed ETV
164	412816 2935 21050 600084 34 128 95 4.1102267274026 13.885876664803 1173.4289891404 15257.990534448
vector 165 TestScenario.uninfected[34].veinsmobility posx ETV
165	1089792 4405 22803 1164166 35 183 149 26.6 623.4 59128.020766505 30498113.189239
vector 166 TestScenario.uninfected[34].veinsmobility posy ETV
166	1085792 4000 22803 1164166 35 183 149 26.6 823.4 75599.616751667 49606527.679253
vector 167 TestScenario.uninfected[32].veinsmobility acceleration ETV
167	409738 3078 22803 600084 35 128 94 -3.4014139973423 2.3998072875873 9.7614494203802 105.50625129449
vector 168 TestScenario.uninfected[32].veinsmobility co2emission ETV
168	406910 2828 22803 600084 35 128 94 0.973 7.8847310022238 243.37961478222 878.99648345987
vector 169 TestScenario.uninfected[33].veinsmobility speed ETV
169	272140 2451 22803 454657 35 114 80 3.4569491167139 13.889471060962 973.85719227046 12581.366881929
vector 170 TestScenario.uninfected[35].veinsmobility posx ETV
170	171001 1610 24542 245011 36 88 53 430.85114615197 811.65373793631 31468.500339326 19457500.645008
vector 171 TestScenario.uninfected[35].veinsmobility posy ETV
171	169904 1097 24542 245011 36 88 53 623.4 626.6 33089.297707696 20658630.506918
vector 172 TestScenario.uninfected[33].veinsmobility acceleration ETV
172	269581 2559 24542 454657 36 114 79 -4.5 2.1650308443047 9.8289112585657 125.63633679325
vector 173 TestScenario.uninfected[33].veinsmobility co2emission ETV
173	267232 2349 24542 454657 36 114 79 0.973 8.1498921015699 223.07639424249 946.66210175558
vector 174 TestScenario.uninfected[34].veinsmobility speed ETV
174	1081147 4645 24542 1164166 36 183 148 3.5634508839069 13.889162013922 1751.4667114221 22096.03273187
vector 175 TestScenario.uninfected[36].veinsmobility posx ETV
175	324822 2050 26363 495336 37 118 82 451.25900579196 823.4 55594.243501872 38592625.777146
vector 176 TestScenario.uninfected[36].veinsmobility posy ETV
176	322583 2239 26363 495336 37 118 82 423.4 823.4 53276.231935888 36546687.655615
vector 177 TestScenario.uninfected[34].veinsmobility acceleration ETV
177	1076281 4866 26363 1164166 37 183 147 -4.5 2.4153763812664 9.8025271618394 278.00149894586
vector 178 TestScenario.uninfected[34].veinsmobility co2emission ETV
178	1071901 4380 26363 1164166 37 183 147 0.973 9.0978578468547 418.34286512971 1808.6588294452
vector 179 TestScenario.uninfected[35].veinsmobility speed ETV
179	168325 1579 26363 245011 37 88 52 3.6203443900892 13.870213491542 572.89154315346 6997.8545309386
vector 180 TestScenario.uninfected[37].veinsmobility posx ETV
180	345039 2907 28236 515304 38 120 83 623.4 802.12986399138 53005.741337689 33986432.327026
vector 181 TestScenario.uninfected[37].veinsmobility posy ETV
181	342607 2432 28236 515304 38 120 83 38.389116823078 826.6 41272.957641154 26641146.397262
vector 182 TestScenario.uninfected[35].veinsmobility acceleration ETV
182	166692 1633 28236 245011 38 88 51 -3.3959586887746 2.4059911361127 9.9861164709889 115.60325165129
vector 183 TestScenario.uninfected[35].veinsmobility co2emission ETV
183	165218 1474 28236 245011 38 88 51 0.973 9.1519213104491 159.09392484532 762.62467734088
vector 184 TestScenario.uninfected[36].veinsmobility speed ETV
184	320089 2494 28236 495336 38 118 81 3.8243404462491 13.884886095186 970.08325837851 12351.730765904
vector 185 TestScenario.exploited[38].veinsmobility posx ETV
185	369523 2778 30111 555985 39 124 86 38.34901859849 623.4 30220.13922437 13740792.800829
vector 186 TestScenario.exploited[38].veinsmobility posy ETV
186	367388 2135 30111 555985 39 124 86 226.6 426.6 26253.994584679 8640384.5588037
vector 187 TestScenario.uninfected[36].veinsmobility acceleration ETV
187	317507 2582 30111 495336 39 118 80 -4.5 2.2012685150234 9.7663391585842 154.32869821718
vector 188 TestScenario.uninfected[36].veinsmobility co2emission ETV
188	315135 2372 30111 495336 39 118 80 0.973 8.8289196045788 234.35415861939 1006.7242696391
vector 189 TestScenario.uninfected[37].veinsmobility speed ETV
189	340074 2533 30111 515304 39 120 82 3.6890253213815 13.882698429751 982.61486267655 12440.305571733
vector 190 TestScenario.uninfected[39].veinsmobility posx ETV
190	1110508 4968 32028 1175542 40 184 145 30.664774274022 826.6 72117.144802501 46022535.834116
vector 191 TestScenario.uninfected[39].veinsmobility posy ETV
191	1107175 3333 32028 1175542 40 184 145 623.4 826.6 96007.618597549 64373198.992896
vector 192 TestScenario.uninfected[37].veinsmobility acceleration ETV
192	337440 2634 32028 515304 40 120 81 -2.8073139393222 2.1511138456408 9.8530989932892 97.707336246367
vector 193 TestScenario.uninfected[37].veinsmobility co2emission ETV
193	335067 2373 32028 515304 40 120 81 0.973 9.1702128466764 223.93697439532 915.08582777341
vector 194 TestScenario.exploited[38].veinsmobility speed ETV
194	364757 2631 32028 555985 40 124 85 3.4126911999808 13.888685336341 963.83760213672 11846.427155388
vector 195 TestScenario.uninfected[40].veinsmobility posx ETV
195	526497 3184 33988 718764 41 139 99 223.4 823.4 44943.602941425 26178696.416627
vector 196 TestScenario.uninfected[40].veinsmobility posy ETV
196	523910 2587 33988 718764 41 139 99 26.6 219.29648580912 7503.1637407949 981550.01091814
vector 197 TestScenario.exploited[38].veinsmobility acceleration ETV
197	362039 2718 33988 555985 41 124 84 -4.5 2.5992915989389 9.7300931765737 195.6192339093
vector 198 TestScenario.exploited[38].veinsmobility co2emission ETV
198	359587 2452 33988 555985 41 124 84 0.973 8.5802477677509 258.54879605471 1193.8199478665
vector 199 TestScenario.uninfected[39].veinsmobility speed ETV
199	1102816 4359 33988 1175542 41 184 144 0 13.889899287522 1364.3568631941 16462.997026264
vector 200 TestScenario.uninfected[39].veinsmobility acceleration ETV
200	1098295 4521 36065 1175542 42 184 143 -4.4144556729199 2.5337842334062 9.8047008243672 317.0720850864
vector 201 TestScenario.uninfected[39].veinsmobility co2emission ETV
201	1094197 4098 36065 1175542 42 184 143 0.973 8.7424080354298 395.23244441008 1749.8475405574
vector 202 TestScenario.uninfected[40].veinsmobility speed ETV
202	520860 3050 36065 718764 42 139 98 3.5368493253977 13.889564565998 1161.2867297676 14801.850379178
vector 203 TestScenario.exploited[41].veinsmobility posx ETV
203	1067730 4171 38078 1152771 43 182 140 223.4 823.4 84857.77137551 59220913.589847
vector 204 TestScenario.exploited[41].veinsmobility posy ETV
204	1064006 3724 38078 1152771 43 182 140 37.451308881535 823.4 51681.154879008 27182130.798345
vector 205 TestScenario.uninfected[42].veinsmobility posx ETV
205	211565 4426 38078 286574 43 94 52 438.36723477336 799.32371379861 31632.673126451 19663648.727381
vector 206 TestScenario.uninfected[42].veinsmobility posy ETV
206	210295 1270 38078 286574 43 94 52 226.6 426.6 16478.639734079 5632691.8069667
vector 207 TestScenario.uninfected[40].veinsmobility acceleration ETV
207	517664 3196 38078 718764 43 139 97 -4.3780584249396 2.1593958288734 9.5338293789557 164.14543957531
vector 208 TestScenario.uninfected[40].veinsmobility co2emission ETV
208	514770 2894 38078 718764 43 139 97 0.973 7.6510729162793 268.79162718077 1071.9188161493
vector 209 TestScenario.exploited[43].veinsmobility posx ETV
209	357394 2193 40427 555985 44 124 81 26.6 419.33612752961 14428.976343997 4308124.3806181
vector 210 TestScenario.exploited[43].veinsmobility posy ETV
210	355380 2014 40427 555985 44 124 81 450.52986398059 826.6 61514.415658918 47706263.178791
vector 211 TestScenario.exploited[41].veinsmobility speed ETV
211	1059626 4380 40427 1152771 44 182 139 0.90347771274678 13.889389451244 1566.266214184 19449.552486414
vector 212 TestScenario.uninfected[42].veinsmobility speed ETV
212	208737 1558 40427 286574 44 94 51 3.7209236291447 13.884602082523 574.40035622894 7059.6376834025
vector 213 TestScenario.uninfected[44].veinsmobility posx ETV
213	493890 2638 42697 707580 45 138 94 34.375117776587 799.24190773406 44989.97441353 26019017.392546
vector 214 TestScenario.uninfected[44].veinsmobility posy ETV
214	491567 2323 42697 707580 45 138 94 426.6 826.6 65889.023180463 48645589.751871
vector 215 TestScenario.exploited[41].veinsmobility acceleration ETV
215	1055057 4569 42697 1152771 45 182 138 -4.488855715831 2.4684410212585 10.755821955469 246.00962972016
vector 216 TestScenario.exploited[41].veinsmobility co2emission ETV
216	1050989 4068 42697 1152771 45 182 138 0.973 9.1067909758572 382.0367708333 1620.4632498848
vector 217 TestScenario.uninfected[42].veinsmobility acceleration ETV
217	207133 1604 42697 286574 45 94 50 -3.2167201252065 2.3877744355542 10.152815294014 111.2273707689
vector 218 TestScenario.uninfected[42].veinsmobility co2emission ETV
218	205684 1449 42697 286574 45 94 50 0.973 8.541667178803 157.78739124088 744.16564693926
vector 219 TestScenario.exploited[43].veinsmobility speed ETV
219	352914 2466 42697 555985 45 124 80 3.65 13.886792831207 966.80322002256 12481.570985539
vector 220 TestScenario.uninfected[45].veinsmobility posx ETV
220	778281 3311 45362 925542 46 159 114 26.6 409.60508253598 27022.110934187 8460306.5774939
vector 221 TestScenario.uninfected[45].veinsmobility posy ETV
221	775310 2971 45362 925542 46 159 114 226.6 626.6 52596.213764887 27393798.761345
vector 222 TestScenario.exploited[43].veinsmobility acceleration ETV
222	350326 2588 45362 555985 46 124 79 -4.5 2.3068880910613 9.7829990684223 116.76721992354
vector 223 TestScenario.exploited[43].veinsmobility co2emission ETV
223	347946 2380 45362 555985 46 124 79 0.973 8.7267279248296 216.05962960708 850.35377006706
vector 224 TestScenario.uninfected[44].veinsmobility speed ETV
224	488671 2896 45362 707580 46 138 93 4.0514964356029 13.887463170793 1178.4066239807 15523.541249838
vector 225 TestScenario.uninfected[46].veinsmobility posx ETV
225	707721 3132 47785 893481 47 156 110 253.86342565369 626.6 55097.525078192 28893863.469942
vector 226 TestScenario.uninfected[46].veinsmobility posy ETV
226	704611 3110 47785 893481 47 156 110 23.4 811.65455643876 38529.137447125 20100572.760602
vector 227 TestScenario.uninfected[44].veinsmobility acceleration ETV
227	485627 3044 47785 707580 47 138 92 -4.4908571149874 2.1602965477691 9.7895902351485 102.82429656182
vector 228 TestScenario.uninfected[44].veinsmobility co2emission ETV
228	482830 2797 47785 707580 47 138 92 0.973 8.8579281537279 239.46390353556 893.50555564016
vector 229 TestScenario.uninfected[45].veinsmobility speed ETV
229	771666 3644 47785 925542 47 159 113 4.5368298230499e-014 13.889889416588 966.87243540953 11900.885643419
vector 230 TestScenario.uninfected[47].veinsmobility posx ETV
230	1021860 3706 50647 1141596 48 181 134 23.4 626.6 46694.048482715 21847597.575964
vector 231 TestScenario.uninfected[47].veinsmobility posy ETV
231	1018392 3468 50647 1141596 48 181 134 23.4 426.6 27577.107887274 8111277.0277471
vector 232 TestScenario.uninfected[45].veinsmobility acceleration ETV
232	767902 3764 50647 925542 48 159 112 -4.4773891509146 2.5602834250336 2.5929236030907 199.05794203071
vector 233 TestScenario.uninfected[45].veinsmobility co2emission ETV
233	764814 3088 50647 925542 48 159 112 0.973 8.5721648410629 274.13819875555 1081.5421811988
vector 234 TestScenario.uninfected[46].veinsmobility speed ETV
234	701239 3372 50647 893481 48 156 109 0 13.887783357208 1170.2938243007 14814.163002853
vector 235 TestScenario.uninfected[48].veinsmobility posx ETV
235	300034 2276 53244 485332 49 117 69 226.6 811.65445072269 32348.950726901 17954411.903026
vector 236 TestScenario.uninfected[48].veinsmobility posy ETV
236	298440 1594 53244 485332 49 117 69 458.63197240383 623.4 41930.751783137 25586113.201611
vector 237 TestScenario.uninfected[46].veinsmobility acceleration ETV
237	697695 3544 53244 893481 49 156 108 -3.3960207638621 2.1885824185493 9.768533612386 182.44794341068
vector 238 TestScenario.uninfected[46].veinsmobility co2emission ETV
238	694517 3178 53244 893481 49 156 108 0.973 7.993712390913 284.54994962516 1122.0507266342
vector 239 TestScenario.uninfected[47].veinsmobility speed ETV
239	1014209 4183 53244 1141596 49 181 133 0 13.888271516736 1373.0700456267 16651.080179351
vector 240 TestScenario.uninfected[49].veinsmobility posx ETV
240	931244 3949 56399 1031673 50 170 121 23.4 426.6 25073.325805552 9084536.5306284
vector 241 TestScenario.uninfected[49].veinsmobility posy ETV
241	927803 3441 56399 1031673 50 170 121 30.706864755517 618.70606408676 34785.910494082 13493812.949798
vector 242 TestScenario.uninfected[47].veinsmobility acceleration ETV
242	1009863 4346 56399 1141596 50 181 132 -4.4903036564542 2.4624886814621 9.789186532363 305.56937347136
vector 243 TestScenario.uninfected[47].veinsmobility co2emission ETV
243	1005998 3865 56399 1141596 50 181 132 0.973 8.7580230564374 382.55074443312 1697.1042133459
vector 244 TestScenario.uninfected[48].veinsmobility speed ETV
244	296333 2107 56399 485332 50 117 68 3.572679043223 13.884871024273 766.71367917196 9414.5312793918
vector 245 TestScenario.uninfected[48].veinsmobility acceleration ETV
245	294158 2175 59276 485332 51 117 67 -3.3663882217026 2.2490129208029 9.8262616702747 155.00947298131
vector 246 TestScenario.uninfected[48].veinsmobility co2emission ETV
246	292200 1958 59276 485332 51 117 67 0.973 8.5881899088201 208.03220641043 971.14131942915
vector 247 TestScenario.uninfected[49].veinsmobility speed ETV
247	924050 3753 59276 1031673 51 170 120 2.64629022661 13.886349811684 1358.0130951349 16849.244483799
vector 248 TestScenario.uninfected[50].veinsmobility posx ETV
248	221924 1760 62166 354348 52 103 52 246.26043356794 623.4 26151.204813182 13988570.387167
vector 249 TestScenario.uninfected[50].veinsmobility posy ETV
249	220643 1281 62166 354348 52 103 52 237.3744180952 423.4 19927.385262175 7857889.9609349
vector 250 TestScenario.uninfected[51].veinsmobility posx ETV
250	825938 3220 62166 974822 52 164 113 26.6 619.13073698566 26802.525198985 11513071.598239
vector 251 TestScenario.uninfected[51].veinsmobility posy ETV
251	823249 2689 62166 974822 52 164 113 23.4 423.4 17026.374445432 5646285.1627211
vector 252 TestScenario.uninfected[49].veinsmobility acceleration ETV
252	920114 3936 62166 1031673 52 170 119 -4.5 2.3571652766759 11.134859215858 247.81924792685
vector 253 TestScenario.uninfected[49].veinsmobility co2emission ETV
253	916571 3543 62166 1031673 52 170 119 0.973 8.9533918708172 343.91825933719 1517.7604081696
vector 254 TestScenario.exploited[52].veinsmobility posx ETV
254	591851 3138 65590 799970 53 147 95 430.66798928883 823.4 65948.500252929 47793084.402979
vector 255 TestScenario.exploited[52].veinsmobility posy ETV
255	589421 2430 65590 799970 53 147 95 23.4 596.35667556089 14513.932355249 5329015.6077888
vector 256 TestScenario.uninfected[50].veinsmobility speed ETV
256	219069 1574 65590 354348 53 103 51 2.6633267270577 13.887176382102 576.87925998101 7055.1724854614
vector 257 TestScenario.uninfected[51].veinsmobility speed ETV
257	819734 3515 65590 974822 53 164 112 3.567865826583 13.888866231341 1354.3889690235 17472.358613048
vector 258 TestScenario.uninfected[50].veinsmobility acceleration ETV
258	217445 1624 68739 354348 54 103 50 -4.3745530637988 2.4106372146727 8.5146855776989 123.48981486385
vector 259 TestScenario.uninfected[50].veinsmobility co2emission ETV
259	215991 1454 68739 354348 54 103 50 0.973 8.1212903734367 159.39585152484 767.70515858769
vector 260 TestScenario.uninfected[51].veinsmobility acceleration ETV
260	816032 3702 68739 974822 54 164 111 -4.4770109570761 2.2414560255251 9.7955622342774 167.88571235901
vector 261 TestScenario.uninfected[51].veinsmobility co2emission ETV
261	812665 3367 68739 974822 54 164 111 0.973 8.0927448430367 297.06401685228 1159.1345886354
vector 262 TestScenario.exploited[52].veinsmobility speed ETV
262	586484 2937 68739 799970 54 147 94 3.5888643558145 13.889673733534 1163.6917833261 15227.002604542
vector 263 TestScenario.uninfected[53].veinsmobility posx ETV
263	842481 3083 71913 974822 55 164 110 423.4 815.63669915691 54864.754072011 28934816.316947
vector 264 TestScenario.uninfected[53].veinsmobility posy ETV
264	839515 2966 71913 974822 55 164 110 23.4 826.6 38946.305645468 24677409.36394
vector 265 TestScenario.exploited[52].veinsmobility acceleration ETV
265	583383 3101 71913 799970 55 147 93 -4.4992865975307 2.1969799860707 9.8143280210948 119.68981572513
vector 266 TestScenario.exploited[52].veinsmobility co2emission ETV
266	580543 2840 71913 799970 55 147 93 0.973 8.3407716217661 244.89969415211 926.13595507673
vector 267 TestScenario.exploited[54].veinsmobility posx ETV
267	606357 2779 75109 829880 56 150 95 226.6 809.80448890436 35196.199086663 16628900.167232
vector 268 TestScenario.exploited[54].veinsmobility posy ETV
268	603865 2492 75109 829880 56 150 95 26.6 611.62274348469 17308.374300173 7048451.6805267
vector 269 TestScenario.uninfected[53].veinsmobility speed ETV
269	836086 3429 75109 974822 56 164 109 3.3721123280167 13.886188451822 1374.5801534982 18091.825473894
vector 270 TestScenario.uninfected[55].veinsmobility posx ETV
270	469458 2408 78633 684754 57 136 80 459.75995024195 816.33999086458 51139.021119568 33116724.254509
vector 271 TestScenario.uninfected[55].veinsmobility posy ETV
271	467264 2194 78633 684754 57 136 80 223.4 823.4 43203.7953799 27827758.504728
vector 272 TestScenario.uninfected[56].veinsmobility posx ETV
272	560556 2621 78633 770152 57 144 88 226.6 619.31389993929 34232.167723474 14886780.423267
vector 273 TestScenario.uninfected[56].veinsmobility posy ETV
273	558480 2076 78633 770152 57 144 88 423.4 623.4 43045.029466947 21708050.152543
vector 274 TestScenario.uninfected[53].veinsmobility acceleration ETV
274	832463 3623 78633 974822 57 164 108 -3.2236913014901 2.4769851216278 9.7141253153217 110.04827151537
vector 275 TestScenario.uninfected[53].veinsmobility co2emission ETV
275	829158 3305 78633 974822 57 164 108 0.973 8.1277753001539 274.55532912484 973.63339202865
vector 276 TestScenario.exploited[54].veinsmobility speed ETV
276	600919 2946 78633 829880 57 150 94 3.3798106809364 13.88194634082 1173.2003097885 15342.154436346
vector 277 TestScenario.uninfected[57].veinsmobility posx ETV
277	793459 3579 82505 935269 58 160 103 256.06965611612 811.656807482 55697.521641297 32075474.853466
vector 278 TestScenario.uninfected[57].veinsmobility posy ETV
278	790843 2616 82505 935269 58 160 103 423.4 823.4 61223.792400634 38572834.154392
vector 279 TestScenario.exploited[54].veinsmobility acceleration ETV
279	597798 3121 82505 829880 58 150 93 -2.8734617955869 2.4896851420403 2.4267895769422 77.571757669134
vector 280 TestScenario.exploited[54].veinsmobility co2emission ETV
280	594989 2809 82505 829880 58 150 93 0.973 9.0299264239233 220.58466731102 731.64100539725
vector 281 TestScenario.uninfected[55].veinsmobility speed ETV
281	464789 2475 82505 684754 58 136 79 3.0839398884467 13.886695412521 970.19810062848 12523.416350906
vector 282 TestScenario.uninfected[56].veinsmobility speed ETV
282	555755 2725 82505 770152 58 144 87 3.4050453199124 13.88794095485 963.65201619006 11745.817376809
vector 283 TestScenario.uninfected[58].veinsmobility posx ETV
283	1001891 4107 87183 1120177 59 179 121 26.6 223.4 18060.690947025 3479974.1505693
vector 284 TestScenario.uninfected[58].veinsmobility posy ETV
284	998605 3286 87183 1120177 59 179 121 223.4 823.4 59152.594722535 36451060.373245
vector 285 TestScenario.uninfected[55].veinsmobility acceleration ETV
285	462204 2585 87183 684754 59 136 78 -4.0704377519432 2.3904156500474 10.774792700366 118.58905034741
vector 286 TestScenario.uninfected[55].veinsmobility co2emission ETV
286	459860 2344 87183 684754 59 136 78 0.973 8.9517870231801 222.22458104293 960.7263955738
vector 287 TestScenario.uninfected[56].veinsmobility acceleration ETV
287	552940 2815 87183 770152 59 144 86 -4.5 2.2916316743455 9.9680496880631 199.22947394937
vector 288 TestScenario.uninfected[56].veinsmobility co2emission ETV
288	550397 2543 87183 770152 59 144 86 0.973 8.5482419249924 261.54964067713 1213.0098458599
vector 289 TestScenario.uninfected[57].veinsmobility speed ETV
289	787729 3114 87183 935269 59 160 102 0 13.88116792734 962.7905480406 11684.648973436
vector 290 TestScenario.uninfected[59].veinsmobility posx ETV
290	1198705 3210 91225 1242267 60 190 131 26.6 223.4 18960.605639411 3757633.9567885
vector 291 TestScenario.uninfected[59].veinsmobility posy ETV
291	1194898 3807 91225 1242267 60 190 131 26.6 823.4 56432.877598942 36880196.762722
vector 292 TestScenario.uninfected[57].veinsmobility acceleration ETV
292	784489 3240 91225 935269 60 160 101 -4.4594258907263 2.5384245216101 9.7828527152511 222.7913665947
vector 293 TestScenario.uninfected[57].veinsmobility co2emission ETV
293	781592 2897 91225 935269 60 160 101 0.973 8.6236663508789 280.54680237957 1247.1352369519
vector 294 TestScenario.uninfected[58].veinsmobility speed ETV
294	994802 3803 91225 1120177 60 179 120 0.42901486159593 13.889458331065 1350.1107017089 16972.245792516
vector 295 TestScenario.uninfected[60].veinsmobility posx ETV
295	451729 3597 96106 642071 61 132 72 238.41188836662 819.19473169073 41059.342520077 25854761.431709
vector 296 TestScenario.uninfected[60].veinsmobility posy ETV
296	450175 1554 96106 642071 61 132 72 223.4 226.6 16261.989463381 3673077.187062
vector 297 TestScenario.uninfected[58].veinsmobility acceleration ETV
297	990845 3957 96106 1120177 61 179 119 -4.5 2.4103167910781 9.8913805020472 216.30731435157
vector 298 TestScenario.uninfected[58].veinsmobility co2emission ETV
298	987276 3569 96106 1120177 61 179 119 0.973 8.4690393904226 327.61635824818 1360.838941327
vector 299 TestScenario.uninfected[59].veinsmobility speed ETV
299	1190769 4129 96106 1242267 61 190 130 3.8731828298862 13.889630282572 1560.7944482233 19905.776113218
vector 300 TestScenario.uninfected[61].veinsmobility posx ETV
300	809151 3514 100498 954888 62 162 101 26.6 603.22546468111 29902.903335738 12071773.830162
vector 301 TestScenario.uninfected[61].veinsmobility posy ETV
301	806441 2710 100498 954888 62 162 101 226.6 626.6 37264.457085298 16163974.119605
vector 302 TestScenario.uninfected[59].veinsmobility acceleration ETV
302	1186452 4317 100498 1242267 62 190 129 -4.5 2.2137949403771 9.753356021129 179.52632121736
vector 303 TestScenario.uninfected[59].veinsmobility co2emission ETV
303	1182527 3925 100498 1242267 62 190 129 0.973 8.988065789171 343.69106025551 1340.8362132058
vector 304 TestScenario.uninfected[60].veinsmobility speed ETV
304	447947 2228 100498 642071 62 132 71 3.576735499131 13.881609229185 765.80175477772 9163.4283875529
vector 305 TestScenario.uninfected[60].veinsmobility acceleration ETV
305	445660 2287 104832 642071 63 132 70 -3.3191318761342 2.2715011557797 2.8217433333306 179.28910023114
vector 306 TestScenario.uninfected[60].veinsmobility co2emission ETV
306	443622 2038 104832 642071 63 132 70 0.973 8.3719643891319 210.60920682424 979.44499877249
vector 307 TestScenario.uninfected[61].veinsmobility speed ETV
307	803288 3153 104832 954888 63 162 100 3.2282830880854 13.88899233781 1170.8165985619 14715.595393065
vector 308 TestScenario.uninfected[62].veinsmobility posx ETV
308	870266 3047 108986 985360 64 165 102 438.35987080848 823.4 74372.535429893 55727890.346788
vector 309 TestScenario.uninfected[62].veinsmobility posy ETV
309	867600 2666 108986 985360 64 165 102 226.6 823.4 45224.680378369 25880263.839441
vector 310 TestScenario.uninfected[61].veinsmobility acceleration ETV
310	800006 3282 108986 954888 64 162 99 -4.1020093987416 2.5231384495902 9.7457560180349 200.6830619769
vector 311 TestScenario.uninfected[61].veinsmobility co2emission ETV
311	797038 2968 108986 954888 64 162 99 0.973 8.569807306156 290.46196268683 1261.8745663208
vector 312 TestScenario.uninfected[63].veinsmobility posx ETV
312	480692 2138 113251 697450 65 137 73 252.96532482535 426.6 29883.935107277 12354063.384056
vector 313 TestScenario.uninfected[63].veinsmobility posy ETV
313	478554 2138 113251 697450 65 137 73 23.4 419.35308593422 14228.833761435 4303641.1235856
vector 314 TestScenario.exploited[64].veinsmobility posx ETV
314	396057 1351 113251 589063 65 127 63 626.6 626.6 39475.8 24735536.28
vector 315 TestScenario.exploited[64].veinsmobility posy ETV
315	394086 1971 113251 589063 65 127 63 38.316522934 811.62923957183 27105.394716292 15466765.998677
vector 316 TestScenario.uninfected[62].veinsmobility speed ETV
316	864416 3184 113251 985360 65 165 101 0.44336575108522 13.889684410444 1163.2026650922 14844.69378598
vector 317 TestScenario.uninfected[65].veinsmobility posx ETV
317	404952 1958 117630 589063 66 127 62 649.45736437652 826.6 50005.31398143 40456690.617259
vector 318 TestScenario.uninfected[65].veinsmobility posy ETV
318	403162 1790 117630 589063 66 127 62 23.4 611.64480345795 16268.994651908 6973524.0634552
vector 319 TestScenario.uninfected[62].veinsmobility acceleration ETV
319	861088 3328 117630 985360 66 165 100 -4.4748140736986 2.4762316786591 9.7768623871854 181.56088433113
vector 320 TestScenario.uninfected[62].veinsmobility co2emission ETV
320	858059 3029 117630 985360 66 165 100 0.973 8.3809407882219 275.8067283197 1127.9651920314
vector 321 TestScenario.uninfected[63].veinsmobility speed ETV
321	476326 2228 117630 697450 66 137 72 0 13.887711246491 768.27535040828 9636.6600806293
vector 322 TestScenario.exploited[64].veinsmobility speed ETV
322	392139 1947 117630 589063 66 127 62 4.0597896086658 13.887210084654 780.75304678371 10328.911515246
vector 323 TestScenario.uninfected[66].veinsmobility posx ETV
323	332847 2220 122326 495336 67 118 52 230.67052270776 426.6 18384.649738583 6760366.7651418
vector 324 TestScenario.uninfected[66].veinsmobility posy ETV
324	331577 1270 122326 495336 67 118 52 656.34072449961 826.6 41771.321990482 33660784.892729
vector 325 TestScenario.uninfected[63].veinsmobility acceleration ETV
325	473986 2340 122326 697450 67 137 71 -3.160120066919 2.2489139082084 9.8826472648216 125.64592621764
vector 326 TestScenario.uninfected[63].veinsmobility co2emission ETV
326	471866 2120 122326 697450 67 137 71 0.973 8.3355197351209 195.80812656123 820.00570023691
vector 327 TestScenario.exploited[64].veinsmobility acceleration ETV
327	390094 2045 122326 589063 67 127 61 -2.6743898615663 2.0393585864594 2.3587951318753 45.597908419515
vector 328 TestScenario.exploited[64].veinsmobility co2emission ETV
328	388234 1860 122326 589063 67 127 61 0.973 8.1794793363495 142.12838916298 445.63576949374
vector 329 TestScenario.uninfected[65].veinsmobility speed ETV
329	401251 1911 122326 589063 67 127 61 4.2123220424346 13.878750361737 782.49374177229 10367.674316393
vector 330 TestScenario.uninfected[67].veinsmobility posx ETV
330	648580 3141 127087 860306 68 153 86 231.04047303996 426.6 32705.172706306 12804394.043673
vector 331 TestScenario.uninfected[67].veinsmobility posy ETV
331	646235 2345 127087 860306 68 153 86 423.4 818.41680965962 48046.234853068 28775621.785517
vector 332 TestScenario.uninfected[65].veinsmobility acceleration ETV
332	399260 1991 127087 589063 68 127 60 -4.5 2.0937120166444 9.6359277033511 57.478465791347
vector 333 TestScenario.uninfected[65].veinsmobility co2emission ETV
333	397408 1852 127087 589063 68 127 60 0.973 7.8717396215949 158.43083838806 577.83172476368
vector 334 TestScenario.uninfected[66].veinsmobility speed ETV
334	329983 1594 127087 495336 68 118 51 3.6136658504466 13.886658700635 564.82398799081 6910.4821561105
vector 335 TestScenario.uninfected[68].veinsmobility posx ETV
335	154786 1029 131905 219065 69 84 16 34.360976455613 194.45182853315 1581.8403716046 202379.41414245
vector 336 TestScenario.uninfected[68].veinsmobility posy ETV
336	154466 320 131905 219065 69 84 16 26.6 26.6 425.6 11320.96
vector 337 TestScenario.uninfected[66].veinsmobility acceleration ETV
337	328343 1640 131905 495336 69 118 50 -3.2730724910496 2.312731644758 9.779239051572 109.89432646335
vector 338 TestScenario.uninfected[66].veinsmobility co2emission ETV
338	326872 1471 131905 495336 69 118 50 0.973 7.9077850436764 156.04942924994 733.26837886396
vector 339 TestScenario.uninfected[67].veinsmobility speed ETV
339	643557 2678 131905 860306 69 153 85 3.540793232068 13.887961996486 951.35433293938 11782.439928625
vector 340 TestScenario.exploited[69].veinsmobility posx ETV
340	661941 2378 136756 883505 70 155 86 226.6 798.64897871376 36806.754902013 18218698.71577
vector 341 TestScenario.exploited[69].veinsmobility posy ETV
341	659691 2250 136756 883505 70 155 86 26.6 226.6 12534.413412009 2434941.7464242
vector 342 TestScenario.uninfected[67].veinsmobility acceleration ETV
342	640762 2795 136756 860306 70 153 84 -3.3702960542208 2.3174427211494 9.770987977644 156.39776915515
vector 343 TestScenario.uninfected[67].veinsmobility co2emission ETV
343	638246 2516 136756 860306 70 153 84 0.973 8.0448490957483 239.0423767455 1029.0290332453
vector 344 TestScenario.uninfected[68].veinsmobility speed ETV
344	154002 464 136756 219065 70 84 15 4.1782581929502 13.879320312652 179.01334116854 2281.6743518293
vector 345 TestScenario.uninfected[68].veinsmobility acceleration ETV
345	153546 456 142307 219065 71 84 14 -0.065595869056414 2.0652585616941 9.6850930813524 18.556290854369
vector 346 TestScenario.uninfected[68].veinsmobility co2emission ETV
346	153117 429 142307 219065 71 84 14 1.8015017774262 7.52656404587 50.03483012317 244.41381530967
vector 347 TestScenario.exploited[69].veinsmobility speed ETV
347	657011 2680 142307 883505 71 155 85 3.8027220228911 13.88823536505 968.42887835134 11945.840102643
vector 348 TestScenario.uninfected[70].veinsmobility posx ETV
348	538175 2191 147329 739571 72 141 70 438.38732259463 626.6 41756.332083234 25140705.270065
vector 349 TestScenario.uninfected[70].veinsmobility posy ETV
349	536157 2018 147329 739571 72 141 70 30.67966206283 426.6 17335.826489429 5919857.7334767
vector 350 TestScenario.exploited[69].veinsmobility acceleration ETV
350	654231 2780 147329 883505 72 155 84 -4.4616759595644 2.2957899847371 9.8660584278518 196.82818654798
vector 351 TestScenario.exploited[69].veinsmobility co2emission ETV
351	651721 2510 147329 883505 72 155 84 0.973 8.5756622430322 258.71528883249 1202.6087036617
vector 352 TestScenario.uninfected[71].veinsmobility posx ETV
352	251991 2266 152604 379467 73 106 34 226.6 411.62418832979 9703.1517884554 2934840.9812859
vector 353 TestScenario.uninfected[71].veinsmobility posy ETV
353	251120 871 152604 379467 73 106 34 254.19651876347 423.4 13256.356655134 5262174.0481971
vector 354 TestScenario.uninfected[70].veinsmobility speed ETV
354	533985 2172 152604 739571 73 141 69 0.93441754804309 13.889795709967 773.02894883366 9712.4764496729
vector 355 TestScenario.uninfected[72].veinsmobility posx ETV
355	1568090 4134 158181 1588643 74 221 148 23.4 623.4 39890.79175724 15431160.599862
vector 356 TestScenario.uninfected[72].veinsmobility posy ETV
356	1563832 4258 158181 1588643 74 221 148 26.6 826.6 56333.375089727 36421359.167429
vector 357 TestScenario.uninfected[70].veinsmobility acceleration ETV
357	531728 2257 158181 739571 74 141 68 -3.2562813524179 2.3821587809478 9.9170615804915 118.11138101031
vector 358 TestScenario.uninfected[70].veinsmobility co2emission ETV
358	529681 2047 158181 739571 74 141 68 0.973 9.1146926266178 191.51057980215 805.43390825365
vector 359 TestScenario.uninfected[71].veinsmobility speed ETV
359	250093 1027 158181 379467 74 106 33 3.9695258141273 13.873015157979 370.94935948464 4542.44300624
vector 360 TestScenario.uninfected[73].veinsmobility posx ETV
360	1165193 2889 163709 1220883 75 188 114 623.4 811.62646598313 73505.833368942 47639700.534196
vector 361 TestScenario.uninfected[73].veinsmobility posy ETV
361	1162114 3079 163709 1220883 75 188 114 223.4 619.35489613564 39387.718352856 16256265.22929
vector 362 TestScenario.uninfected[71].veinsmobility acceleration ETV
362	249054 1039 163709 379467 75 106 32 -2.6955638020149 2.4409681957378 9.5891868605732 59.057724135811
vector 363 TestScenario.uninfected[71].veinsmobility co2emission ETV
363	248109 945 163709 379467 75 106 32 0.973 8.3990016399943 101.717497085 482.00810015022
vector 364 TestScenario.uninfected[72].veinsmobility speed ETV
364	1559113 4719 163709 1588643 75 221 147 0.44901050291432 13.886592055499 1771.3735173515 23018.724498772
vector 365 TestScenario.uninfected[74].veinsmobility posx ETV
365	548620 1777 169315 759480 76 143 68 246.3211035694 426.6 27438.094080931 11241354.018094
vector 366 TestScenario.uninfected[74].veinsmobility posy ETV
366	546624 1996 169315 759480 76 143 68 223.4 812.19992701726 30772.649268763 16843935.328968
vector 367 TestScenario.uninfected[72].veinsmobility acceleration ETV
367	1554137 4976 169315 1588643 76 221 146 -4.489930387464 2.4969322331576 9.4400196929865 210.86977763083
vector 368 TestScenario.uninfected[72].veinsmobility co2emission ETV
368	1549632 4505 169315 1588643 76 221 146 0.973 9.2529507157096 385.4253320525 1521.2176269443
vector 369 TestScenario.uninfected[73].veinsmobility speed ETV
369	1158993 3121 169315 1220883 76 188 113 0 13.889703238432 772.96280784283 9331.3495174287
vector 370 TestScenario.exploited[75].veinsmobility posx ETV
370	1278939 3401 174853 1354046 77 200 124 226.6 826.6 72178.471488515 49410725.753769
vector 371 TestScenario.exploited[75].veinsmobility posy ETV
371	1275651 3288 174853 1354046 77 200 124 23.4 219.30400575938 8935.0433119082 1191684.4349047
vector 372 TestScenario.exploited[76].veinsmobility posx ETV
372	195006 966 174853 272849 77 92 16 34.336994317754 191.37310877888 1547.3423377111 193975.02223066
vector 373 TestScenario.exploited[76].veinsmobility posy ETV
373	194670 336 174853 272849 77 92 16 826.6 826.6 13225.6 10932280.96
vector 374 TestScenario.uninfected[73].veinsmobility acceleration ETV
374	1155770 3223 174853 1220883 77 188 112 -3.2678987444428 2.0992886412609 9.776892850806 154.45634014482
vector 375 TestScenario.uninfected[73].veinsmobility co2emission ETV
375	1152719 3051 174853 1220883 77 188 112 0.973 7.861049529393 250.23996034121 935.55436237888
vector 376 TestScenario.uninfected[74].veinsmobility speed ETV
376	544507 2117 174853 759480 77 143 67 3.3940921669131 13.88715550924 775.46806086915 9644.4738757353
vector 377 TestScenario.uninfected[77].veinsmobility posx ETV
377	427124 1497 180798 610490 78 129 52 23.4 411.61234281346 8947.2960329496 2537680.5290542
vector 378 TestScenario.uninfected[77].veinsmobility posy ETV
378	425856 1268 180798 610490 78 129 52 623.4 797.56427755893 33616.765815697 21847914.778807
vector 379 TestScenario.uninfected[74].veinsmobility acceleration ETV
379	542329 2178 180798 759480 78 143 66 -3.2169043049554 2.1060859555285 4.1573417020004 116.2399495245
vector 380 TestScenario.uninfected[74].veinsmobility co2emission ETV
380	540366 1963 180798 759480 78 143 66 0.973 8.258945061968 185.92909798549 786.68754839608
vector 381 TestScenario.exploited[75].veinsmobility speed ETV
381	1271722 3929 180798 1354046 78 200 123 4.3201850636237e-010 13.88795273521 1365.8518605456 16979.913652613
vector 382 TestScenario.exploited[76].veinsmobility speed ETV
382	194206 464 180798 272849 78 92 15 3.7704503515322 13.87812376647 176.00459930556 2229.3669802389
vector 383 TestScenario.uninfected[78].veinsmobility posx ETV
383	751166 2965 186576 904426 79 157 79 426.6 811.63368894428 44715.932196952 26469373.146316
vector 384 TestScenario.uninfected[78].veinsmobility posy ETV
384	749273 1893 186576 904426 79 157 79 226.6 423.4 29182.750956999 11293168.335899
vector 385 TestScenario.exploited[75].veinsmobility acceleration ETV
385	1267625 4097 186576 1354046 79 200 122 -4.5 2.1750539967316 10.251925427893 214.36124242969
vector 386 TestScenario.exploited[75].veinsmobility co2emission ETV
386	1263965 3660 186576 1354046 79 200 122 0.973 8.1996525918574 335.9575658765 1397.3953064215
vector 387 TestScenario.exploited[76].veinsmobility acceleration ETV
387	193753 453 186576 272849 79 92 14 -0.064800050850026 2.0853690614342 10.060789421421 19.340867911412
vector 388 TestScenario.exploited[76].veinsmobility co2emission ETV
388	193320 433 186576 272849 79 92 14 1.7999001126511 8.5947187961898 50.21932153854 249.44260230388
vector 389 TestScenario.uninfected[77].veinsmobility speed ETV
389	424252 1604 186576 610490 79 129 51 4.0405405514156 13.889524879041 578.63045882525 7132.4429059561
vector 390 TestScenario.uninfected[79].veinsmobility posx ETV
390	1363255 3492 192493 1413271 80 205 126 23.4 619.35489613564 32406.789327911 15798259.742801
vector 391 TestScenario.uninfected[79].veinsmobility posy ETV
391	1359880 3375 192493 1413271 80 205 126 23.4 419.31420158831 15580.489312478 4347767.4038273
vector 392 TestScenario.uninfected[77].veinsmobility acceleration ETV
392	422603 1649 192493 610490 80 129 50 -3.3119890183187 2.3506418774603 9.8231244287449 107.7088734178
vector 393 TestScenario.uninfected[77].veinsmobility co2emission ETV
393	421107 1496 192493 610490 80 129 50 0.973 8.3189781619419 156.34122744327 729.36549288828
vector 394 TestScenario.uninfected[78].veinsmobility speed ETV
394	746879 2394 192493 904426 80 157 78 0 13.885897054498 761.84423414705 9317.0778668076
vector 395 TestScenario.exploited[80].veinsmobility posx ETV
395	855679 2380 199238 985360 81 165 85 237.54857951685 623.4 43995.178731637 24130193.080113
vector 396 TestScenario.exploited[80].veinsmobility posy ETV
396	853493 2186 199238 985360 81 165 85 426.6 823.4 48665.603164332 30202474.042579
vector 397 TestScenario.uninfected[78].veinsmobility acceleration ETV
397	744393 2486 199238 904426 81 157 77 -4.4876850533555 2.3919464599504 9.7443977129284 164.06976323098
vector 398 TestScenario.uninfected[78].veinsmobility co2emission ETV
398	742154 2239 199238 904426 81 157 77 0.973 8.8632489715995 218.70688419264 978.0251266767
vector 399 TestScenario.uninfected[79].veinsmobility speed ETV
399	1355976 3904 199238 1413271 81 205 125 0 13.889111887235 1355.5835291505 17400.744209366
vector 400 TestScenario.exploited[81].veinsmobility posx ETV
400	635527 2719 205521 840126 82 151 70 26.6 412.67520674001 13210.859592816 3552109.6064327
vector 401 TestScenario.exploited[81].veinsmobility posy ETV
401	633677 1850 205521 840126 82 151 70 423.4 623.4 36509.5619261 19544661.075711
vector 402 TestScenario.uninfected[79].veinsmobility acceleration ETV
402	1351881 4095 205521 1413271 82 205 124 -4.5 2.0889977310598 9.6709591633119 184.98896689331
vector 403 TestScenario.uninfected[79].veinsmobility co2emission ETV
403	1348156 3725 205521 1413271 82 205 124 0.973 8.7031366566798 319.01873666085 1256.2343899854
vector 404 TestScenario.exploited[80].veinsmobility speed ETV
404	850834 2659 205521 985360 82 165 84 3.1631636561912 13.889032260918 972.37897657756 12187.647069735
vector 405 TestScenario.uninfected[82].veinsmobility posx ETV
405	883329 2377 212263 994825 83 166 84 226.6 623.4 34866.328071082 16634187.7272
vector 406 TestScenario.uninfected[82].veinsmobility posy ETV
406	881109 2220 212263 994825 83 166 84 626.6 823.4 62627.682004167 47263942.912622
vector 407 TestScenario.exploited[80].veinsmobility acceleration ETV
407	848075 2759 212263 985360 83 165 83 -3.3799477352904 2.556452070456 10.672408230825 157.89664908578
vector 408 TestScenario.exploited[80].veinsmobility co2emission ETV
408	845564 2511 212263 985360 83 165 83 0.973 9.539839228907 241.53153535483 1050.287363786
vector 409 TestScenario.exploited[81].veinsmobility speed ETV
409	631491 2186 212263 840126 83 151 69 2.4009461514104 13.888561790907 770.62195470356 9404.3739161587
vector 410 TestScenario.uninfected[83].veinsmobility posx ETV
410	1445480 3451 219065 1457142 84 209 126 43.555099484402 815.64181771742 42173.870431881 19106682.973574
vector 411 TestScenario.uninfected[83].veinsmobility posy ETV
411	1442060 3420 219065 1457142 84 209 126 23.4 823.4 66803.308673398 47842635.133806
vector 412 TestScenario.exploited[81].veinsmobility acceleration ETV
412	629237 2254 219065 840126 84 151 68 -4.3999724712646 2.0916919864109 11.399741520932 148.25567381976
vector 413 TestScenario.exploited[81].veinsmobility co2emission ETV
413	627196 2041 219065 840126 84 151 68 0.973 7.965130729409 207.99387910495 949.42131751585
vector 414 TestScenario.uninfected[82].veinsmobility speed ETV
414	878484 2625 219065 994825 84 166 83 2.7974132190038 13.887932428874 958.11834903638 11866.311087418
vector 415 TestScenario.exploited[84].veinsmobility posx ETV
415	1037187 3245 225656 1141596 85 181 97 26.6 619.16300982791 27358.683959693 12595449.086639
vector 416 TestScenario.exploited[84].veinsmobility posy ETV
416	1034744 2443 225656 1141596 85 181 97 458.98278321599 826.6 74927.783261413 58860813.6
vector 417 TestScenario.uninfected[82].veinsmobility acceleration ETV
417	875747 2737 225656 994825 85 166 82 -4.2007091251039 2.1861450927355 5.3711337338733 146.92805385849
vector 418 TestScenario.uninfected[82].veinsmobility co2emission ETV
418	873313 2434 225656 994825 85 166 82 0.973 8.2593859004198 231.77455865827 1005.0054573218
vector 419 TestScenario.uninfected[83].veinsmobility speed ETV
419	1438044 4016 225656 1457142 85 209 125 3.733592986218 13.888914511076 1585.6691312853 20862.741972574
vector 420 TestScenario.uninfected[83].veinsmobility acceleration ETV
420	1433793 4251 231957 1457142 86 209 124 -3.265610703244 2.4768528386438 9.9082376070301 116.37978664056
vector 421 TestScenario.uninfected[83].veinsmobility co2emission ETV
421	1429909 3884 231957 1457142 86 209 124 0.973 8.8551239996463 315.45534506375 1150.9442073537
vector 422 TestScenario.exploited[84].veinsmobility speed ETV
422	1031681 3063 231957 1141596 86 181 96 1.8503911653429 13.888651707703 1158.6323488952 14986.106645377
vector 423 TestScenario.uninfected[85].veinsmobility posx ETV
423	672424 2592 238664 883505 87 155 69 31.643888355628 223.4 10543.099666315 1920195.7630416
vector 424 TestScenario.uninfected[85].veinsmobility posy ETV
424	670724 1700 238664 883505 87 155 69 223.4 423.4 19868.288245525 6211081.0019104
vector 425 TestScenario.exploited[86].veinsmobility posx ETV
425	945560 3350 238664 1058479 87 173 87 223.4 423.4 30744.05627584 11462460.045675
vector 426 TestScenario.exploited[86].veinsmobility posy ETV
426	943301 2259 238664 1058479 87 173 87 438.3697669371 799.27845214397 53650.879717368 33512643.590622
vector 427 TestScenario.exploited[84].veinsmobility acceleration ETV
427	1028489 3192 238664 1141596 87 181 95 -4.5 2.092542336355 9.8508667808066 142.84154534928
vector 428 TestScenario.exploited[84].veinsmobility co2emission ETV
428	1025566 2923 238664 1141596 87 181 95 0.973 8.7949549288637 259.14985814173 1036.5484650416
vector 429 TestScenario.exploited[87].veinsmobility posx ETV
429	740289 1865 245011 904426 88 157 70 54.118878301697 426.6 23938.398287513 9125883.5228135
vector 430 TestScenario.exploited[87].veinsmobility posy ETV
430	738374 1915 245011 904426 88 157 70 30.849086308516 223.4 11828.889862017 2328822.9986445
vector 431 TestScenario.uninfected[85].veinsmobility speed ETV
431	668569 2155 245011 883505 88 155 68 3.5704130997881 13.8877141616 754.05630048752 9205.1614640201
vector 432 TestScenario.exploited[86].veinsmobility speed ETV
432	940406 2895 245011 1058479 88 173 86 4.5455299266037e-014 13.883116739853 574.23180721885 6950.6159874259
vector 433 TestScenario.uninfected[88].veinsmobility posx ETV
433	762354 2460 251606 915224 89 158 70 30.807128783444 426.6 17714.233982184 5997730.4485089
vector 434 TestScenario.uninfected[88].veinsmobility posy ETV
434	760607 1747 251606 915224 89 158 70 423.4 611.61845685406 31718.832344866 14604630.577655
vector 435 TestScenario.uninfected[85].veinsmobility acceleration ETV
435	666337 2232 251606 883505 89 155 67 -4.1363350735302 2.2621298692515 9.928508969231 150.85641371427
vector 436 TestScenario.uninfected[85].veinsmobility co2emission ETV
436	664319 2018 251606 883505 89 155 67 0.973 8.7290622012435 205.50671609259 959.39529135899
vector 437 TestScenario.exploited[86].veinsmobility acceleration ETV
437	937463 2943 251606 1058479 89 173 85 -3.1961425307432 2.2355392463389 9.7550810294436 119.48333995178
vector 438 TestScenario.exploited[86].veinsmobility co2emission ETV
438	935193 2270 251606 1058479 89 173 85 0.973 7.9424722191092 197.80608642766 777.05046507814
vector 439 TestScenario.exploited[87].veinsmobility speed ETV
439	736183 2191 251606 904426 89 157 69 2.8624002156365 13.887391563221 761.21582781447 9253.2516710405
vector 440 TestScenario.exploited[87].veinsmobility acceleration ETV
440	733925 2258 259550 904426 90 157 68 -3.6540708359849 2.4756249295943 9.8791359419432 157.86897664703
vector 441 TestScenario.exploited[87].veinsmobility co2emission ETV
441	731895 2030 259550 904426 90 157 68 0.973 9.0823687406641 211.07083999493 995.7281805518
vector 442 TestScenario.uninfected[88].veinsmobility speed ETV
442	758421 2186 259550 915224 90 158 69 3.5534874118697 13.887567145464 761.10647772761 9270.7473783532
vector 443 TestScenario.uninfected[89].veinsmobility posx ETV
443	914167 2404 265867 1013367 91 168 78 237.45409383417 623.4 40380.136048492 22200876.883128
vector 444 TestScenario.uninfected[89].veinsmobility posy ETV
444	912163 2004 265867 1013367 91 168 78 26.6 423.4 13675.738519616 4513028.1582676
vector 445 TestScenario.uninfected[90].veinsmobility posx ETV
445	1492095 3376 265867 1509406 91 214 124 426.6 826.6 70237.778134235 42508267.340885
vector 446 TestScenario.uninfected[90].veinsmobility posy ETV
446	1488705 3390 265867 1509406 91 214 124 47.779519093587 823.4 51904.240497543 29711048.489154
vector 447 TestScenario.uninfected[88].veinsmobility acceleration ETV
447	756161 2260 265867 915224 91 158 68 -3.2820878857688 2.223802035565 9.6868201642136 159.53180423206
vector 448 TestScenario.uninfected[88].veinsmobility co2emission ETV
448	754131 2030 265867 915224 91 158 68 0.973 8.6321679859556 210.34177401113 988.84483009441
vector 449 TestScenario.exploited[91].veinsmobility posx ETV
449	984327 2949 272849 1109127 92 178 87 238.3888927266 826.6 51403.216574195 33202486.188849
vector 450 TestScenario.exploited[91].veinsmobility posy ETV
450	982084 2243 272849 1109127 92 178 87 226.6 426.6 26809.013230584 8902757.7237006
vector 451 TestScenario.uninfected[89].veinsmobility speed ETV
451	909712 2451 272849 1013367 92 168 77 2.7269624873225 13.882458943864 967.66957099162 12678.768333016
vector 452 TestScenario.uninfected[90].veinsmobility speed ETV
452	1484776 3929 272849 1509406 92 214 123 0 13.889009976145 1372.829383302 17444.031390762
vector 453 TestScenario.uninfected[92].veinsmobility posx ETV
453	1345070 3086 279609 1401989 93 204 112 23.4 426.6 35756.044461086 14173133.692929
vector 454 TestScenario.uninfected[92].veinsmobility posy ETV
454	1341787 3283 279609 1401989 93 204 112 23.4 811.65397808557 29525.052631477 15750502.091901
vector 455 TestScenario.uninfected[89].veinsmobility acceleration ETV
455	907148 2564 279609 1013367 93 168 76 -4.5 2.248973936094 11.068378988202 104.44249115914
vector 456 TestScenario.uninfected[89].veinsmobility co2emission ETV
456	904766 2382 279609 1013367 93 168 76 0.973 8.8964931858484 207.93774005012 823.10169052224
vector 457 TestScenario.uninfected[90].veinsmobility acceleration ETV
457	1480669 4107 279609 1509406 93 214 122 -4.5 2.4764047521399 11.606749239866 216.46982178609
vector 458 TestScenario.uninfected[90].veinsmobility co2emission ETV
458	1476938 3731 279609 1509406 93 214 122 0.973 8.9009441970924 332.93988080569 1369.3591897939
vector 459 TestScenario.exploited[91].veinsmobility speed ETV
459	979335 2749 279609 1109127 93 178 86 3.5335929134064 13.887760208375 964.85773467222 11810.90251072
vector 460 TestScenario.exploited[93].veinsmobility posx ETV
460	958727 2501 286574 1089204 94 176 83 230.63317253349 795.95594246554 40640.263793561 22153952.783325
vector 461 TestScenario.exploited[93].veinsmobility posy ETV
461	956739 1988 286574 1089204 94 176 83 23.4 226.6 6811.2728690877 1132586.1872864
vector 462 TestScenario.exploited[91].veinsmobility acceleration ETV
462	976488 2847 286574 1109127 94 178 85 -3.3875360811393 2.297082680529 9.7337058499676 202.79784102798
vector 463 TestScenario.exploited[91].veinsmobility co2emission ETV
463	973932 2556 286574 1109127 94 178 85 0.973 8.5563970112107 261.79865732245 1224.7850405133
vector 464 TestScenario.uninfected[92].veinsmobility speed ETV
464	1338211 3576 286574 1401989 94 204 111 0.85149138135717 13.888076447845 1378.5470222177 18193.71638731
vector 465 TestScenario.uninfected[94].veinsmobility posx ETV
465	1179177 3350 293617 1220883 95 188 94 52.811695929898 618.62849274527 33979.827556414 14661987.984512
vector 466 TestScenario.uninfected[94].veinsmobility posy ETV
466	1176874 2303 293617 1220883 95 188 94 423.4 626.6 53978.323843815 31601810.960476
vector 467 TestScenario.uninfected[92].veinsmobility acceleration ETV
467	1334435 3776 293617 1401989 95 204 110 -4.4766634994838 2.1045117889484 9.9527784030762 114.37109190656
vector 468 TestScenario.uninfected[92].veinsmobility co2emission ETV
468	1330987 3448 293617 1401989 95 204 110 0.973 8.1115520721442 275.88280592922 958.28142597246
vector 469 TestScenario.exploited[93].veinsmobility speed ETV
469	954131 2608 293617 1089204 95 176 82 3.5979966633033 13.888208101587 961.02539768879 12134.238797108
vector 470 TestScenario.exploited[93].veinsmobility acceleration ETV
470	951405 2726 300609 1089204 96 176 81 -4.2113189983924 2.1522834006208 9.8559387244495 149.79486492567
vector 471 TestScenario.exploited[93].veinsmobility co2emission ETV
471	948910 2495 300609 1089204 96 176 81 0.973 8.1601209175372 234.71737241255 1019.2663467527
vector 472 TestScenario.uninfected[94].veinsmobility speed ETV
472	1173883 2991 300609 1220883 96 188 93 0.87255144580238 13.889585245145 962.34823222958 11474.356754789
vector 473 TestScenario.uninfected[95].veinsmobility posx ETV
473	1776861 4072 307570 1726155 97 233 137 238.37064157643 823.4 68431.358057474 37766023.690348
vector 474 TestScenario.uninfected[95].veinsmobility posy ETV
474	1772932 3929 307570 1726155 97 233 137 26.6 826.6 51142.849148184 33580255.544015
vector 475 TestScenario.uninfected[94].veinsmobility acceleration ETV
475	1170807 3076 307570 1220883 97 188 92 -3.2376679342169 2.2271991160698 9.973709179883 209.91510112541
vector 476 TestScenario.uninfected[94].veinsmobility co2emission ETV
476	1168082 2725 307570 1220883 97 188 92 0.973 8.5447167285973 272.29949763071 1255.0333458275
vector 477 TestScenario.uninfected[96].veinsmobility posx ETV
477	970681 3251 315027 1089204 98 176 79 34.381263388658 793.15667306541 35513.498172244 20018470.606009
vector 478 TestScenario.uninfected[96].veinsmobility posy ETV
478	968747 1934 315027 1089204 98 176 79 626.6 826.6 60936.703472123 47535061.236107
vector 479 TestScenario.uninfected[95].veinsmobility speed ETV
479	1768552 4380 315027 1726155 98 233 136 0 13.887839834813 1569.7709694454 20423.835689683
vector 480 TestScenario.uninfected[97].veinsmobility posx ETV
480	1139016 2401 322263 1209738 99 187 89 423.4 626.6 45040.169957126 23437802.073452
vector 481 TestScenario.uninfected[97].veinsmobility posy ETV
481	1136505 2511 322263 1209738 99 187 89 431.03990847809 826.6 57331.66257875 38503673.649502
vector 482 TestScenario.uninfected[98].veinsmobility posx ETV
482	1408895 3143 322263 1435489 99 207 109 423.4 619.13721163814 50301.197227161 23644423.446233
vector 483 TestScenario.uninfected[98].veinsmobility posy ETV
483	1405739 3156 322263 1435489 99 207 109 223.4 819.11837470826 53670.970003735 32521288.645566
vector 484 TestScenario.uninfected[95].veinsmobility acceleration ETV
484	1763919 4633 322263 1726155 99 233 135 -4.4844698122725 2.1424326603627 9.6478642920573 190.39253105703
vector 485 TestScenario.uninfected[95].veinsmobility co2emission ETV
485	1759727 4192 322263 1726155 99 233 135 0.973 8.4820247522847 341.46958210391 1277.3949283361
vector 486 TestScenario.uninfected[96].veinsmobility speed ETV
[...]
vector 11457 TestScenario.uninfected[2293].veinsmobility posx ETV
11457	34788694 3601 24615829 25782528 2295 2394 100 223.4 811.6525005278 52260.198627237 30717305.123852
vector 11458 TestScenario.uninfected[2293].veinsmobility posy ETV
11458	34785519 3175 24615829 25782528 2295 2394 100 23.4 423.4 18263.004695381 6033749.1720879
vector 11459 TestScenario.uninfected[2294].veinsmobility posx ETV
11459	34612164 3644 24615829 25655887 2295 2382 88 431.23007616114 818.39035490177 55399.081967039 35954465.358867
vector 11460 TestScenario.uninfected[2294].veinsmobility posy ETV
11460	34609759 2405 24615829 25655887 2295 2382 88 423.4 426.6 37370.367204657 15870034.027735
vector 11461 TestScenario.uninfected[2290].veinsmobility acceleration ETV
11461	34270297 2876 24615829 25491571 2295 2368 74 -3.1122914943335 2.1783869382157 9.8146868950626 119.89866791041
vector 11462 TestScenario.uninfected[2290].veinsmobility co2emission ETV
11462	34267843 2454 24615829 25491571 2295 2368 74 0.973 9.2884758351675 184.98241424948 782.66700391143
vector 11463 TestScenario.uninfected[2291].veinsmobility speed ETV
11463	34676624 3354 24615829 25688513 2295 2385 91 1.6055408115979 13.888705815023 967.71819189491 11667.703940083
vector 11464 TestScenario.uninfected[2292].veinsmobility speed ETV
11464	34557830 3210 24615829 25645460 2295 2381 87 0.98604860236832 13.887504283462 966.9924696823 12088.374908506
vector 11465 TestScenario.uninfected[2295].veinsmobility posx ETV
11465	34224813 2967 24627709 25446930 2296 2364 69 26.6 226.6 10811.57870598 2202997.2088335
vector 11466 TestScenario.uninfected[2295].veinsmobility posy ETV
11466	34222436 2377 24627709 25446930 2296 2364 69 430.79400706559 623.4 38221.825943456 21482977.69229
vector 11467 TestScenario.uninfected[2291].veinsmobility acceleration ETV
11467	34673182 3442 24627709 25688513 2296 2385 90 -3.2727724796923 2.4939443495194 10.613167727692 221.25176850368
vector 11468 TestScenario.uninfected[2291].veinsmobility co2emission ETV
11468	34670049 3133 24627709 25688513 2296 2385 90 0.973 8.977441526581 273.62646427604 1256.3217231654
vector 11469 TestScenario.uninfected[2292].veinsmobility acceleration ETV
11469	34554532 3298 24627709 25645460 2296 2381 86 -3.2523759679052 2.1794950467674 11.118578929501 117.22037236339
vector 11470 TestScenario.uninfected[2292].veinsmobility co2emission ETV
11470	34551528 3004 24627709 25645460 2296 2381 86 0.973 8.2032366386266 231.66717043217 935.95286483131
vector 11471 TestScenario.uninfected[2293].veinsmobility speed ETV
11471	34781865 3654 24627709 25782528 2296 2394 99 3.7866543479119 13.888421143093 1174.2026727079 14885.025013381
vector 11472 TestScenario.uninfected[2294].veinsmobility speed ETV
11472	34606484 3275 24627709 25655887 2296 2382 87 4.5387018802436e-014 13.886626378212 752.89299705594 8963.9977602881
vector 11473 TestScenario.exploited[2296].veinsmobility posx ETV
11473	34535691 2940 24640602 25634351 2297 2380 84 430.67226945957 626.6 48736.259172007 28635893.98614
vector 11474 TestScenario.exploited[2296].veinsmobility posy ETV
11474	34532975 2716 24640602 25634351 2297 2380 84 23.4 418.42128338405 13497.842908038 4050257.1368298
vector 11475 TestScenario.uninfected[2293].veinsmobility acceleration ETV
11475	34778077 3788 24640602 25782528 2297 2394 98 -3.3758600773612 2.3960888128239 9.8985120181783 147.05211539206
vector 11476 TestScenario.uninfected[2293].veinsmobility co2emission ETV
11476	34774598 3479 24640602 25782528 2297 2394 98 0.973 8.0756317142997 269.39429059068 1093.7573167899
vector 11477 TestScenario.uninfected[2294].veinsmobility acceleration ETV
11477	34603162 3322 24640602 25655887 2297 2382 86 -3.2790518321892 2.4492542199278 9.7412885567162 167.03703592934
vector 11478 TestScenario.uninfected[2294].veinsmobility co2emission ETV
11478	34600285 2877 24640602 25655887 2297 2382 86 0.973 8.7309197014213 230.85885843857 991.95577069907
vector 11479 TestScenario.uninfected[2295].veinsmobility speed ETV
11479	34219941 2495 24640602 25446930 2297 2364 68 3.3337622648025 13.888673811655 754.46944569597 9193.3314894572
vector 11480 TestScenario.uninfected[2297].veinsmobility posx ETV
11480	34329440 2307 24655163 25547174 2298 2373 76 623.4 823.4 53540.73297602 38330146.190949
vector 11481 TestScenario.uninfected[2297].veinsmobility posy ETV
11481	34326822 2618 24655163 25547174 2298 2373 76 426.6 618.36072349436 37558.951831449 18915389.355679
vector 11482 TestScenario.uninfected[2295].veinsmobility acceleration ETV
11482	34217370 2571 24655163 25446930 2298 2364 67 -4.4506105963211 2.4316374236322 9.8228579015406 147.43682136864
vector 11483 TestScenario.uninfected[2295].veinsmobility co2emission ETV
11483	34215003 2367 24655163 25446930 2298 2364 67 0.973 8.6237900506733 205.2859662751 957.87715070011
vector 11484 TestScenario.exploited[2296].veinsmobility speed ETV
11484	34529941 3034 24655163 25634351 2298 2380 83 3.5528576345695 13.88685635308 953.60819143753 11948.494920758
vector 11485 TestScenario.uninfected[2298].veinsmobility posx ETV
11485	34866999 3050 24667445 25823616 2299 2398 100 226.6 626.6 50816.695727476 28331115.022682
vector 11486 TestScenario.uninfected[2298].veinsmobility posy ETV
11486	34863601 3398 24667445 25823616 2299 2398 100 431.66010822173 823.4 68654.217497865 49063784.201389
vector 11487 TestScenario.exploited[2296].veinsmobility acceleration ETV
11487	34526785 3156 24667445 25634351 2299 2380 82 -4.4025040091458 2.0037189357611 9.6661767167906 149.90732732583
vector 11488 TestScenario.exploited[2296].veinsmobility co2emission ETV
11488	34523866 2919 24667445 25634351 2299 2380 82 0.973 8.4572262293029 234.56755614301 1005.7457570342
vector 11489 TestScenario.uninfected[2297].veinsmobility speed ETV
11489	34324048 2774 24667445 25547174 2299 2373 75 0.43747131638986 13.888527000584 757.9002835248 8996.6604425945
vector 11492 TestScenario.uninfected[2297].veinsmobility acceleration ETV
11492	34321233 2815 24679890 25547174 2300 2373 74 -4.0700457800715 2.2127431740123 5.8772878083515 182.19502138112
vector 11493 TestScenario.uninfected[2297].veinsmobility co2emission ETV
11493	34318670 2563 24679890 25547174 2300 2373 74 0.973 8.5717969715849 217.90947192863 992.53680725139
vector 11494 TestScenario.uninfected[2298].veinsmobility speed ETV
11494	34859966 3635 24679890 25823616 2300 2398 99 3.1068863679395 13.889654629442 1155.9996267582 14650.300181539
vector 11497 TestScenario.uninfected[2298].veinsmobility acceleration ETV
11497	34856166 3800 24692388 25823616 2301 2398 98 -3.8462682284562 2.579686530123 10.069698217014 147.35332727473
vector 11498 TestScenario.uninfected[2298].veinsmobility co2emission ETV
11498	34852668 3498 24692388 25823616 2301 2398 98 0.973 8.5614996115914 266.60866412574 1068.942365345
vector 11507 TestScenario.uninfected[2302].veinsmobility posx ETV
11507	34710218 3169 24730875 25700319 2304 2386 83 223.4 412.45870950994 20749.756364552 5444089.5069465
vector 11508 TestScenario.uninfected[2302].veinsmobility posy ETV
11508	34707355 2863 24730875 25700319 2304 2386 83 223.4 819.34162721392 41203.377797946 24681601.69342
vector 11509 TestScenario.uninfected[2303].veinsmobility posx ETV
11509	34627166 2506 24730875 25665836 2304 2383 80 34.384701543332 403.69445029283 17111.888383556 4110462.1104849
vector 11510 TestScenario.uninfected[2303].veinsmobility posy ETV
11510	34624547 2619 24730875 25665836 2304 2383 80 26.6 626.6 25206.205866167 12499829.814304
vector 11512 TestScenario.uninfected[2304].veinsmobility posx ETV
11512	34341639 3099 24743251 25547174 2305 2373 69 58.370971444399 226.6 14444.535247149 3132997.0907922
vector 11513 TestScenario.uninfected[2304].veinsmobility posy ETV
11513	34339220 2419 24743251 25547174 2305 2373 69 223.4 619.38427673931 28927.625750242 13580803.110834
vector 11516 TestScenario.uninfected[2302].veinsmobility speed ETV
11516	34704328 3027 24743251 25700319 2305 2386 82 2.8889667682146 13.887078675537 963.25079914596 12227.219946685
vector 11517 TestScenario.uninfected[2303].veinsmobility speed ETV
11517	34621636 2911 24743251 25665836 2305 2383 79 3.9182317652837 13.888333670618 982.24056706196 12779.239629136
vector 11518 TestScenario.uninfected[2305].veinsmobility posx ETV
11518	34354786 2346 24756636 25597329 2306 2377 72 423.4 618.63392826499 34423.643968004 16794643.970062
vector 11519 TestScenario.uninfected[2305].veinsmobility posy ETV
11519	34352487 2299 24756636 25597329 2306 2377 72 423.4 619.1579099208 34266.420439757 16648869.722203
vector 11520 TestScenario.uninfected[2302].veinsmobility acceleration ETV
11520	34701188 3140 24756636 25700319 2306 2386 81 -3.1771051887972 2.1631392560783 10.924180715824 106.4322542712
vector 11521 TestScenario.uninfected[2302].veinsmobility co2emission ETV
11521	34698310 2878 24756636 25700319 2306 2386 81 0.973 8.6757157585665 217.58250530374 855.12799835473
vector 11522 TestScenario.uninfected[2303].veinsmobility acceleration ETV
11522	34618606 3030 24756636 25665836 2306 2383 78 -4.4937283655855 2.3596863796376 9.8662858733766 96.956332873869
vector 11523 TestScenario.uninfected[2303].veinsmobility co2emission ETV
11523	34615808 2798 24756636 25665836 2306 2383 78 0.973 8.0785824001905 210.61596817663 817.32337387929
vector 11524 TestScenario.uninfected[2304].veinsmobility speed ETV
11524	34336711 2509 24756636 25547174 2306 2373 68 0.57343976459041 13.88024808259 762.57103433298 9626.3993859691
vector 11525 TestScenario.uninfected[2306].veinsmobility posx ETV
11525	34549102 2426 24770820 25645460 2307 2381 75 23.4 218.35835575993 5709.2914690906 778461.34030603
vector 11526 TestScenario.uninfected[2306].veinsmobility posy ETV
11526	34546688 2414 24770820 25645460 2307 2381 75 230.70315419469 426.6 27632.171038518 10578315.225644
vector 11527 TestScenario.uninfected[2304].veinsmobility acceleration ETV
11527	34334120 2591 24770820 25547174 2307 2373 67 -3.1453990299729 2.2528379901731 9.7878527926659 123.3559452898
vector 11528 TestScenario.uninfected[2304].veinsmobility co2emission ETV
11528	34331747 2373 24770820 25547174 2307 2373 67 0.973 8.2661687397811 190.80209582721 815.77852979003
vector 11529 TestScenario.uninfected[2305].veinsmobility speed ETV
11529	34349874 2613 24770820 25597329 2307 2377 71 3.4859035862084 13.882125196485 759.76707723466 9134.8322544758
vector 11530 TestScenario.uninfected[2307].veinsmobility posx ETV
11530	33872254 2689 24783348 25191584 2308 2341 34 451.85788562351 626.6 20095.423625888 11978856.163356
vector 11531 TestScenario.uninfected[2307].veinsmobility posy ETV
11531	33871133 1121 24783348 25191584 2308 2341 34 623.4 811.64851220075 23246.619612963 16067310.053145
vector 11532 TestScenario.uninfected[2305].veinsmobility acceleration ETV
11532	34347192 2682 24783348 25597329 2308 2377 70 -3.1920528369558 2.344718437111 9.882521569064 154.88338542555
vector 11533 TestScenario.uninfected[2305].veinsmobility co2emission ETV
11533	34344738 2454 24783348 25597329 2308 2377 70 0.973 8.4726540825647 211.92949318227 968.54451681078
vector 11534 TestScenario.uninfected[2306].veinsmobility speed ETV
11534	34543959 2729 24783348 25645460 2308 2381 74 0.4349745141773 13.878443220127 758.8234198777 9091.522230255
vector 11535 TestScenario.exploited[2308].veinsmobility posx ETV
11535	33866043 1498 24795838 25179280 2309 2340 32 657.66805023051 823.4 25251.206442084 20012352.377765
vector 11536 TestScenario.exploited[2308].veinsmobility posy ETV
11536	33864990 1053 24795838 25179280 2309 2340 32 438.35749820464 623.4 17988.776262144 10273458.67937
vector 11537 TestScenario.uninfected[2306].veinsmobility acceleration ETV
11537	34541167 2792 24795838 25645460 2309 2381 73 -3.2007049278168 2.2533184363016 9.8904048389337 166.41203264158
vector 11538 TestScenario.uninfected[2306].veinsmobility co2emission ETV
11538	34538631 2536 24795838 25645460 2309 2381 73 0.973 8.9615956131571 217.4318823 982.19478389796
vector 11539 TestScenario.uninfected[2307].veinsmobility speed ETV
11539	33869913 1220 24795838 25191584 2309 2341 33 3.7548537382928 13.889755761193 378.95734896632 4716.9778941432
vector 11542 TestScenario.uninfected[2307].veinsmobility acceleration ETV
11542	33868682 1231 24810805 25191584 2310 2341 32 -3.2579792134087 2.0514858624944 9.9380888798835 64.120807227016
vector 11543 TestScenario.uninfected[2307].veinsmobility co2emission ETV
11543	33867541 1141 24810805 25191584 2310 2341 32 0.973 8.7602152573603 104.09450108092 487.65687658713
vector 11544 TestScenario.exploited[2308].veinsmobility speed ETV
11544	33863851 1139 24810805 25179280 2310 2340 31 3.95396718884 13.883554434269 367.33776080396 4627.7061048974
vector 11545 TestScenario.exploited[2310].veinsmobility posx ETV
11545	34756900 2907 24822870 25751829 2311 2391 81 26.6 423.4 22258.747547177 8342257.7773552
vector 11546 TestScenario.exploited[2310].veinsmobility posy ETV
11546	34754208 2692 24822870 25751829 2311 2391 81 438.34986785384 823.4 58420.430594356 43422828.264747
vector 11547 TestScenario.exploited[2308].veinsmobility acceleration ETV
11547	33862696 1155 24822870 25179280 2311 2340 30 -4.4710308748297 2.0836466543167 9.9023228503286 59.300072332752
vector 11548 TestScenario.exploited[2308].veinsmobility co2emission ETV
11548	33861606 1090 24822870 25179280 2311 2340 30 0.973 8.0877759752863 98.030273642162 454.42362896584
vector 11550 TestScenario.uninfected[2311].veinsmobility posx ETV
11550	34724385 2623 24835766 25719485 2312 2388 77 23.4 26.6 1920.141469077 48054.057303649
vector 11551 TestScenario.uninfected[2311].veinsmobility posy ETV
11551	34721543 2842 24835766 25719485 2312 2388 77 230.83276335228 619.35489613564 34570.701285285 16865141.658608
vector 11554 TestScenario.exploited[2310].veinsmobility speed ETV
11554	34751252 2956 24835766 25751829 2312 2391 80 3.6569102562202 13.888652025638 971.45825564512 12485.236390358
vector 11555 TestScenario.exploited[2310].veinsmobility acceleration ETV
11555	34748192 3060 24848245 25751829 2313 2391 79 -4.4214907535405 2.5044074877258 9.8389424276035 136.54940421896
vector 11556 TestScenario.exploited[2310].veinsmobility co2emission ETV
11556	34745365 2827 24848245 25751829 2313 2391 79 0.973 8.5678550520129 226.03829911393 978.00915010837
vector 11557 TestScenario.uninfected[2311].veinsmobility speed ETV
11557	34718814 2729 24848245 25719485 2313 2388 76 0 13.882246767478 763.1056881062 9551.6418751769
vector 11558 TestScenario.uninfected[2311].veinsmobility acceleration ETV
11558	34715985 2829 24860298 25719485 2314 2388 75 -3.2353985753887 2.135837786966 9.8442051018721 125.40532097416
vector 11559 TestScenario.uninfected[2311].veinsmobility co2emission ETV
11559	34713387 2598 24860298 25719485 2314 2388 75 0.973 8.8069155342866 199.33359745653 828.71754673934
vector 11563 TestScenario.uninfected[2313].veinsmobility posx ETV
11563	33741146 1176 24895815 25090346 2317 2333 17 223.4 223.4 3797.8 848428.52
vector 11564 TestScenario.uninfected[2313].veinsmobility posy ETV
11564	33740537 609 24895815 25090346 2317 2333 17 437.3 597.10615224362 8472.9978249325 4272306.3138716
vector 11565 TestScenario.exploited[2314].veinsmobility posx ETV
11565	34696003 2307 24895815 25700319 2317 2386 70 623.4 826.6 51011.820678282 37661875.292799
vector 11566 TestScenario.exploited[2314].veinsmobility posy ETV
11566	34693768 2235 24895815 25700319 2317 2386 70 223.4 426.6 22599.643984558 7809940.5800283
vector 11571 TestScenario.uninfected[2313].veinsmobility speed ETV
11571	33739946 591 24907154 25090346 2318 2333 16 2.2517867585054 13.876619574958 180.02585299129 2260.928668889
vector 11572 TestScenario.exploited[2314].veinsmobility speed ETV
11572	34691219 2549 24907154 25700319 2318 2386 69 3.9106312974744 13.882696547869 776.28302713943 9509.5955016229
vector 11575 TestScenario.uninfected[2313].veinsmobility acceleration ETV
11575	33739368 578 24918954 25090346 2319 2333 15 -0.052972960569896 1.9414366477705 11.531334287572 21.485473690602
vector 11576 TestScenario.uninfected[2313].veinsmobility co2emission ETV
11576	33738815 553 24918954 25090346 2319 2333 15 1.8429602290508 8.0639360810574 52.832977209832 249.06250567161
vector 11577 TestScenario.exploited[2314].veinsmobility acceleration ETV
11577	34688604 2615 24918954 25700319 2319 2386 68 -3.2139177320853 2.3480908611952 9.6846401238031 152.73493500781
vector 11578 TestScenario.exploited[2314].veinsmobility co2emission ETV
11578	34686220 2384 24918954 25700319 2319 2386 68 0.973 8.4814260895055 210.40758265291 956.28715993373
vector 11621 TestScenario.uninfected[2326].veinsmobility posx ETV
11621	34233321 1465 25015788 25468657 2327 2366 40 623.4 801.68053578562 26193.494933545 17266142.744567
vector 11622 TestScenario.uninfected[2326].veinsmobility posy ETV
11622	34231984 1337 25015788 25468657 2327 2366 40 638.39033090639 826.6 30947.606304074 24130274.05863
vector 11634 TestScenario.uninfected[2326].veinsmobility speed ETV
11634	34230556 1428 25028039 25468657 2328 2366 39 0 13.88676096922 382.31882389926 4674.1734325876
vector 11635 TestScenario.uninfected[2328].veinsmobility posx ETV
11635	34772230 2368 25041156 25782528 2329 2394 66 31.11434412376 402.47081305626 12154.398908681 2824156.8569937
vector 11636 TestScenario.uninfected[2328].veinsmobility posy ETV
11636	34770428 1802 25041156 25782528 2329 2394 66 223.4 226.6 14890.994167213 3359864.1795324
vector 11637 TestScenario.uninfected[2326].veinsmobility acceleration ETV
11637	34229101 1455 25041156 25468657 2329 2366 38 -3.1542617992937 2.068940845544 10.013480964803 77.776170949396
vector 11638 TestScenario.uninfected[2326].veinsmobility co2emission ETV
11638	34227780 1321 25041156 25468657 2329 2366 38 0.973 8.7682918899517 112.88697472963 509.57805612594
vector 11642 TestScenario.uninfected[2328].veinsmobility speed ETV
11642	34768120 2308 25053361 25782528 2330 2394 65 0 13.886288203867 572.98349780401 6909.3433645877
vector 11643 TestScenario.uninfected[2328].veinsmobility acceleration ETV
11643	34765767 2353 25065271 25782528 2331 2394 64 -3.1533362073974 2.2270875482517 9.9165791653134 127.90176394492
vector 11644 TestScenario.uninfected[2328].veinsmobility co2emission ETV
11644	34763603 2164 25065271 25782528 2331 2394 64 0.973 8.6950534080445 175.27907247649 769.9319687676
vector 11802 TestScenario.uninfected[2361].veinsmobility posx ETV
11802	34458411 590 25436560 25609628 2363 2378 16 452.17561902616 611.65850213002 8761.1404222519 4843003.965421
vector 11803 TestScenario.uninfected[2361].veinsmobility posy ETV
11803	34457979 432 25436560 25609628 2363 2378 16 823.4 823.4 13174.4 10847800.96
vector 11811 TestScenario.uninfected[2361].veinsmobility speed ETV
11811	34457427 552 25446930 25609628 2364 2378 15 4.1372751630711 13.886660049134 178.48538958754 2272.5401419642
vector 11814 TestScenario.uninfected[2361].veinsmobility acceleration ETV
11814	34456886 541 25458049 25609628 2365 2378 14 -0.099599240457174 2.1741012523044 9.7493848860629 18.959081688008
vector 11815 TestScenario.uninfected[2361].veinsmobility co2emission ETV
11815	34456371 515 25458049 25609628 2365 2378 14 1.6848732944442 8.1876879681605 50.167876484242 251.00062391963
vector 11858 TestScenario.exploited[2372].veinsmobility posx ETV
11858	34762088 1515 25569929 25762152 2375 2392 18 647.02468822096 812.55158158735 13391.901612839 10022533.656148
vector 11859 TestScenario.exploited[2372].veinsmobility posy ETV
11859	34761602 486 25569929 25762152 2375 2392 18 623.4 623.4 11221.2 6995296.08
vector 11864 TestScenario.exploited[2372].veinsmobility speed ETV
11864	34760975 627 25581560 25762152 2376 2392 17 2.8581840535742 13.885890328619 180.2425053226 2099.4300495993
vector 11867 TestScenario.exploited[2372].veinsmobility acceleration ETV
11867	34760368 607 25597329 25762152 2377 2392 16 -2.2661160179425 2.0044019818166 8.2015305744575 32.332597946398
vector 11868 TestScenario.exploited[2372].veinsmobility co2emission ETV
11868	34759807 561 25597329 25762152 2377 2392 16 0.973 8.4586316162701 56.02532877164 286.92634840778
