version 2
run Default-0-20200706-16:20:20-17864
attr configname Default
attr datetime 20200706-16:20:20
attr experiment Default
attr inifile omnetpp.ini
attr iterationvars ""
attr iterationvarsf ""
attr measurement ""
attr network sim1.src.TestScenario
attr processid 17864
attr repetition 0
attr replication #0
attr resultdir results
attr runnumber 0
attr seedset 0
param *.playgroundSizeX 1000m
param *.playgroundSizeY 1000m
param *.playgroundSizeZ 50m
param *.manager.moduleType "\"exploited=org.car2x.veins.nodes.Car *=org.car2x.veins.nodes.Car\""
param *.manager.moduleName "\"exploited=exploited *=uninfected\""
param *.manager.updateInterval 1s
param *.manager.host "\"localhost\""
param *.manager.port 9999
param *.manager.autoShutdown true
param *.manager.launchConfig "xmldoc(\"demo.launchd.xml\")"
param *.connectionManager.sendDirect true
param *.connectionManager.maxInterfDist 300m
param *.connectionManager.drawMaxIntfDist false
param *.**.nic.mac1609_4.useServiceChannel false
param *.**.nic.mac1609_4.txPower 20mW
param *.**.nic.mac1609_4.bitrate 6Mbps
param *.**.nic.phy80211p.sensitivity -89dBm
param *.**.nic.phy80211p.useThermalNoise true
param *.**.nic.phy80211p.thermalNoise -110dBm
param *.**.nic.phy80211p.decider "xmldoc(\"config.xml\")"
param *.**.nic.phy80211p.analogueModels "xmldoc(\"config.xml\")"
param *.**.nic.phy80211p.usePropagationDelay true
param *.**.nic.phy80211p.antenna "xmldoc(\"antenna.xml\", \"/root/Antenna[@id='monopole']\")"
param *.uninfected[*].applType "\"sim1.src.Uninfected\""
param *.uninfected[*].appl.dataPriority 2
param *.uninfected[*].appl.headerLength "80 bit"
param *.uninfected[*].appl.sendBeacons false
param *.uninfected[*].appl.dataOnSch false
param *.uninfected[*].appl.beaconInterval 1s
param *.uninfected[*].veinsmobilityType.debug true
param *.uninfected[*].veinsmobility.x 0
param *.uninfected[*].veinsmobility.y 0
param *.uninfected[*].veinsmobility.z 1.895
param *.uninfected[*0].veinsmobility.accidentCount 1
param *.uninfected[*0].veinsmobility.accidentStart 75s
param *.uninfected[*0].veinsmobility.accidentDuration 50s
param *.exploited[*].applType "\"sim1.src.Exploited\""
param *.exploited[*].appl.dataPriority 2
param *.exploited[*].appl.headerLength "80 bit"
param *.exploited[*].appl.sendBeacons false
param *.exploited[*].appl.dataOnSch false
param *.exploited[*].appl.beaconInterval 1s
param *.exploited[*].veinsmobilityType.debug true
param *.exploited[*].veinsmobility.x 0
param *.exploited[*].veinsmobility.y 0
param *.exploited[*].veinsmobility.z 1.895
param *.exploited[*0].veinsmobility.accidentCount 1
param *.exploited[*0].veinsmobility.accidentStart 75s
param *.exploited[*0].veinsmobility.accidentDuration 50s

scalar TestScenario.uninfected[23].appl generatedWSMs 0
scalar TestScenario.uninfected[23].appl receivedWSMs 0
scalar TestScenario.uninfected[23].appl generatedBSMs 0
scalar TestScenario.uninfected[23].appl receivedBSMs 0
scalar TestScenario.uninfected[23].appl generatedWSAs 0
scalar TestScenario.uninfected[23].appl receivedWSAs 0
scalar TestScenario.uninfected[23].nic.phy80211p busyTime 0
scalar TestScenario.uninfected[23].nic.mac1609_4 ReceivedUnicastPackets 0
scalar TestScenario.uninfected[23].nic.mac1609_4 ReceivedBroadcasts 0
scalar TestScenario.uninfected[23].nic.mac1609_4 SentPackets 0
scalar TestScenario.uninfected[23].nic.mac1609_4 SentAcknowledgements 0
scalar TestScenario.uninfected[23].nic.mac1609_4 SNIRLostPackets 0
scalar TestScenario.uninfected[23].nic.mac1609_4 RXTXLostPackets 0
scalar TestScenario.uninfected[23].nic.mac1609_4 TotalLostPackets 0
scalar TestScenario.uninfected[23].nic.mac1609_4 DroppedPacketsInMac 0
scalar TestScenario.uninfected[23].nic.mac1609_4 TooLittleTime 0
scalar TestScenario.uninfected[23].nic.mac1609_4 TimesIntoBackoff 0
scalar TestScenario.uninfected[23].nic.mac1609_4 SlotsBackoff 0
scalar TestScenario.uninfected[23].nic.mac1609_4 NumInternalContention 0
scalar TestScenario.uninfected[23].nic.mac1609_4 totalBusyTime 0
scalar TestScenario.uninfected[23].veinsmobility startTime 24
scalar TestScenario.uninfected[23].veinsmobility totalTime 15
scalar TestScenario.uninfected[23].veinsmobility stopTime 40
scalar TestScenario.uninfected[23].veinsmobility minSpeed 3.986859580019
scalar TestScenario.uninfected[23].veinsmobility maxSpeed 13.878134806112
scalar TestScenario.uninfected[23].veinsmobility totalDistance 172.35679590864
scalar TestScenario.uninfected[23].veinsmobility totalCO2Emission 50.040227565199
scalar TestScenario.uninfected[3].appl generatedWSMs 0
scalar TestScenario.uninfected[3].appl receivedWSMs 0
scalar TestScenario.uninfected[3].appl generatedBSMs 0
scalar TestScenario.uninfected[3].appl receivedBSMs 0
scalar TestScenario.uninfected[3].appl generatedWSAs 0
scalar TestScenario.uninfected[3].appl receivedWSAs 0
scalar TestScenario.uninfected[3].nic.phy80211p busyTime 0
scalar TestScenario.uninfected[3].nic.mac1609_4 ReceivedUnicastPackets 0
scalar TestScenario.uninfected[3].nic.mac1609_4 ReceivedBroadcasts 0
scalar TestScenario.uninfected[3].nic.mac1609_4 SentPackets 0
scalar TestScenario.uninfected[3].nic.mac1609_4 SentAcknowledgements 0
scalar TestScenario.uninfected[3].nic.mac1609_4 SNIRLostPackets 0
scalar TestScenario.uninfected[3].nic.mac1609_4 RXTXLostPackets 0
scalar TestScenario.uninfected[3].nic.mac1609_4 TotalLostPackets 0
scalar TestScenario.uninfected[3].nic.mac1609_4 DroppedPacketsInMac 0
scalar TestScenario.uninfected[3].nic.mac1609_4 TooLittleTime 0
scalar TestScenario.uninfected[3].nic.mac1609_4 TimesIntoBackoff 0
scalar TestScenario.uninfected[3].nic.mac1609_4 SlotsBackoff 0
scalar TestScenario.uninfected[3].nic.mac1609_4 NumInternalContention 0
scalar TestScenario.uninfected[3].nic.mac1609_4 totalBusyTime 0
scalar TestScenario.uninfected[3].veinsmobility startTime 4
scalar TestScenario.uninfected[3].veinsmobility totalTime 47
scalar TestScenario.uninfected[3].veinsmobility stopTime 52
scalar TestScenario.uninfected[3].veinsmobility minSpeed 4.1837425248161
scalar TestScenario.uninfected[3].veinsmobility maxSpeed 13.885503359863
scalar TestScenario.uninfected[3].veinsmobility totalDistance 570.36427427216
scalar TestScenario.uninfected[3].veinsmobility totalCO2Emission 130.90128893504
scalar TestScenario.uninfected[9].appl generatedWSMs 0
scalar TestScenario.uninfected[9].appl receivedWSMs 0
scalar TestScenario.uninfected[9].appl generatedBSMs 0
scalar TestScenario.uninfected[9].appl receivedBSMs 0
scalar TestScenario.uninfected[9].appl generatedWSAs 0
scalar TestScenario.uninfected[9].appl receivedWSAs 0
scalar TestScenario.uninfected[9].nic.phy80211p busyTime 0
scalar TestScenario.uninfected[9].nic.mac1609_4 ReceivedUnicastPackets 0
scalar TestScenario.uninfected[9].nic.mac1609_4 ReceivedBroadcasts 0
scalar TestScenario.uninfected[9].nic.mac1609_4 SentPackets 0
scalar TestScenario.uninfected[9].nic.mac1609_4 SentAcknowledgements 0
scalar TestScenario.uninfected[9].nic.mac1609_4 SNIRLostPackets 0
scalar TestScenario.uninfected[9].nic.mac1609_4 RXTXLostPackets 0
scalar TestScenario.uninfected[9].nic.mac1609_4 TotalLostPackets 0
scalar TestScenario.uninfected[9].nic.mac1609_4 DroppedPacketsInMac 0
scalar TestScenario.uninfected[9].nic.mac1609_4 TooLittleTime 0
scalar TestScenario.uninfected[9].nic.mac1609_4 TimesIntoBackoff 0
scalar TestScenario.uninfected[9].nic.mac1609_4 SlotsBackoff 0
scalar TestScenario.uninfected[9].nic.mac1609_4 NumInternalContention 0
scalar TestScenario.uninfected[9].nic.mac1609_4 totalBusyTime 0
scalar TestScenario.uninfected[9].veinsmobility startTime 10
scalar TestScenario.uninfected[9].veinsmobility totalTime 51
scalar TestScenario.uninfected[9].veinsmobility stopTime 62
scalar TestScenario.uninfected[9].veinsmobility minSpeed 3.4841223518603
scalar TestScenario.uninfected[9].veinsmobility maxSpeed 13.887866197138
scalar TestScenario.uninfected[9].veinsmobility totalDistance 568.25287229009
scalar TestScenario.uninfected[9].veinsmobility totalCO2Emission 156.04833877977
scalar TestScenario.uninfected[13].appl generatedWSMs 0
scalar TestScenario.uninfected[13].appl receivedWSMs 0
scalar TestScenario.uninfected[13].appl generatedBSMs 0
scalar TestScenario.uninfected[13].appl receivedBSMs 0
scalar TestScenario.uninfected[13].appl generatedWSAs 0
scalar TestScenario.uninfected[13].appl receivedWSAs 0
scalar TestScenario.uninfected[13].nic.phy80211p busyTime 0
scalar TestScenario.uninfected[13].nic.mac1609_4 ReceivedUnicastPackets 0
scalar TestScenario.uninfected[13].nic.mac1609_4 ReceivedBroadcasts 0
scalar TestScenario.uninfected[13].nic.mac1609_4 SentPackets 0
scalar TestScenario.uninfected[13].nic.mac1609_4 SentAcknowledgements 0
scalar TestScenario.uninfected[13].nic.mac1609_4 SNIRLostPackets 0
scalar TestScenario.uninfected[13].nic.mac1609_4 RXTXLostPackets 0
scalar TestScenario.uninfected[13].nic.mac1609_4 TotalLostPackets 0
scalar TestScenario.uninfected[13].nic.mac1609_4 DroppedPacketsInMac 0
scalar TestScenario.uninfected[13].nic.mac1609_4 TooLittleTime 0
scalar TestScenario.uninfected[13].nic.mac1609_4 TimesIntoBackoff 0
scalar TestScenario.uninfected[13].nic.mac1609_4 SlotsBackoff 0
scalar TestScenario.uninfected[13].nic.mac1609_4 NumInternalContention 0
scalar TestScenario.uninfected[13].nic.mac1609_4 totalBusyTime 0
scalar TestScenario.uninfected[13].veinsmobility startTime 14
scalar TestScenario.uninfected[13].veinsmobility totalTime 48
scalar TestScenario.uninfected[13].veinsmobility stopTime 63
scalar TestScenario.uninfected[13].veinsmobility minSpeed 3.8004325452788
scalar TestScenario.uninfected[13].veinsmobility maxSpeed 13.887520042215
scalar TestScenario.uninfected[13].veinsmobility totalDistance 571.86814044767
scalar TestScenario.uninfected[13].veinsmobility totalCO2Emission 133.23352619824
scalar TestScenario.exploited[16].appl generatedWSMs 0
scalar TestScenario.exploited[16].appl receivedWSMs 0
scalar TestScenario.exploited[16].appl generatedBSMs 0
scalar TestScenario.exploited[16].appl receivedBSMs 0
scalar TestScenario.exploited[16].appl generatedWSAs 0
scalar TestScenario.exploited[16].appl receivedWSAs 0
scalar TestScenario.exploited[16].nic.phy80211p busyTime 0
scalar TestScenario.exploited[16].nic.mac1609_4 ReceivedUnicastPackets 0
scalar TestScenario.exploited[16].nic.mac1609_4 ReceivedBroadcasts 0
scalar TestScenario.exploited[16].nic.mac1609_4 SentPackets 0
scalar TestScenario.exploited[16].nic.mac1609_4 SentAcknowledgements 0
scalar TestScenario.exploited[16].nic.mac1609_4 SNIRLostPackets 0
scalar TestScenario.exploited[16].nic.mac1609_4 RXTXLostPackets 0
scalar TestScenario.exploited[16].nic.mac1609_4 TotalLostPackets 0
scalar TestScenario.exploited[16].nic.mac1609_4 DroppedPacketsInMac 0
scalar TestScenario.exploited[16].nic.mac1609_4 TooLittleTime 0
scalar TestScenario.exploited[16].nic.mac1609_4 TimesIntoBackoff 0
scalar TestScenario.exploited[16].nic.mac1609_4 SlotsBackoff 0
scalar TestScenario.exploited[16].nic.mac1609_4 NumInternalContention 0
scalar TestScenario.exploited[16].nic.mac1609_4 totalBusyTime 0
scalar TestScenario.exploited[16].veinsmobility startTime 17
scalar TestScenario.exploited[16].veinsmobility totalTime 47
scalar TestScenario.exploited[16].veinsmobility stopTime 65
scalar TestScenario.exploited[16].veinsmobility minSpeed 4.1236571908097
scalar TestScenario.exploited[16].veinsmobility maxSpeed 13.886215206874
scalar TestScenario.exploited[16].veinsmobility totalDistance 568.87999186707
scalar TestScenario.exploited[16].veinsmobility totalCO2Emission 131.93639487851
scalar TestScenario.uninfected[2].appl generatedWSMs 0
scalar TestScenario.uninfected[2].appl receivedWSMs 0
scalar TestScenario.uninfected[2].appl generatedBSMs 0
scalar TestScenario.uninfected[2].appl receivedBSMs 0
scalar TestScenario.uninfected[2].appl generatedWSAs 0
scalar TestScenario.uninfected[2].appl receivedWSAs 0
scalar TestScenario.uninfected[2].nic.phy80211p busyTime 0
scalar TestScenario.uninfected[2].nic.mac1609_4 ReceivedUnicastPackets 0
scalar TestScenario.uninfected[2].nic.mac1609_4 ReceivedBroadcasts 0
scalar TestScenario.uninfected[2].nic.mac1609_4 SentPackets 0
scalar TestScenario.uninfected[2].nic.mac1609_4 SentAcknowledgements 0
scalar TestScenario.uninfected[2].nic.mac1609_4 SNIRLostPackets 0
scalar TestScenario.uninfected[2].nic.mac1609_4 RXTXLostPackets 0
scalar TestScenario.uninfected[2].nic.mac1609_4 TotalLostPackets 0
scalar TestScenario.uninfected[2].nic.mac1609_4 DroppedPacketsInMac 0
scalar TestScenario.uninfected[2].nic.mac1609_4 TooLittleTime 0
scalar TestScenario.uninfected[2].nic.mac1609_4 TimesIntoBackoff 0
scalar TestScenario.uninfected[2].nic.mac1609_4 SlotsBackoff 0
scalar TestScenario.uninfected[2].nic.mac1609_4 NumInternalContention 0
scalar TestScenario.uninfected[2].nic.mac1609_4 totalBusyTime 0
scalar TestScenario.uninfected[2].veinsmobility startTime 3
scalar TestScenario.uninfected[2].veinsmobility totalTime 65
scalar TestScenario.uninfected[2].veinsmobility stopTime 69
scalar TestScenario.uninfected[2].veinsmobility minSpeed 3.7415080421728
scalar TestScenario.uninfected[2].veinsmobility maxSpeed 13.888141771904
scalar TestScenario.uninfected[2].veinsmobility totalDistance 772.22483809841
scalar TestScenario.uninfected[2].veinsmobility totalCO2Emission 186.2221302214
scalar TestScenario.uninfected[5].appl generatedWSMs 0
scalar TestScenario.uninfected[5].appl receivedWSMs 0
scalar TestScenario.uninfected[5].appl generatedBSMs 0
scalar TestScenario.uninfected[5].appl receivedBSMs 0
scalar TestScenario.uninfected[5].appl generatedWSAs 0
scalar TestScenario.uninfected[5].appl receivedWSAs 0
scalar TestScenario.uninfected[5].nic.phy80211p busyTime 0
scalar TestScenario.uninfected[5].nic.mac1609_4 ReceivedUnicastPackets 0
scalar TestScenario.uninfected[5].nic.mac1609_4 ReceivedBroadcasts 0
scalar TestScenario.uninfected[5].nic.mac1609_4 SentPackets 0
scalar TestScenario.uninfected[5].nic.mac1609_4 SentAcknowledgements 0
scalar TestScenario.uninfected[5].nic.mac1609_4 SNIRLostPackets 0
scalar TestScenario.uninfected[5].nic.mac1609_4 RXTXLostPackets 0
scalar TestScenario.uninfected[5].nic.mac1609_4 TotalLostPackets 0
scalar TestScenario.uninfected[5].nic.mac1609_4 DroppedPacketsInMac 0
scalar TestScenario.uninfected[5].nic.mac1609_4 TooLittleTime 0
scalar TestScenario.uninfected[5].nic.mac1609_4 TimesIntoBackoff 0
scalar TestScenario.uninfected[5].nic.mac1609_4 SlotsBackoff 0
scalar TestScenario.uninfected[5].nic.mac1609_4 NumInternalContention 0
scalar TestScenario.uninfected[5].nic.mac1609_4 totalBusyTime 0
scalar TestScenario.uninfected[5].veinsmobility startTime 6
scalar TestScenario.uninfected[5].veinsmobility totalTime 66
scalar TestScenario.uninfected[5].veinsmobility stopTime 73
scalar TestScenario.uninfected[5].veinsmobility minSpeed 3.5457310922653
scalar TestScenario.uninfected[5].veinsmobility maxSpeed 13.887489674408
scalar TestScenario.uninfected[5].veinsmobility totalDistance 759.22990774023
scalar TestScenario.uninfected[5].veinsmobility totalCO2Emission 185.87278059693
scalar TestScenario.uninfected[24].appl generatedWSMs 0
scalar TestScenario.uninfected[24].appl receivedWSMs 0
scalar TestScenario.uninfected[24].appl generatedBSMs 0
scalar TestScenario.uninfected[24].appl receivedBSMs 0
scalar TestScenario.uninfected[24].appl generatedWSAs 0
scalar TestScenario.uninfected[24].appl receivedWSAs 0
scalar TestScenario.uninfected[24].nic.phy80211p busyTime 0
scalar TestScenario.uninfected[24].nic.mac1609_4 ReceivedUnicastPackets 0
scalar TestScenario.uninfected[24].nic.mac1609_4 ReceivedBroadcasts 0
scalar TestScenario.uninfected[24].nic.mac1609_4 SentPackets 0
scalar TestScenario.uninfected[24].nic.mac1609_4 SentAcknowledgements 0
scalar TestScenario.uninfected[24].nic.mac1609_4 SNIRLostPackets 0
scalar TestScenario.uninfected[24].nic.mac1609_4 RXTXLostPackets 0
scalar TestScenario.uninfected[24].nic.mac1609_4 TotalLostPackets 0
scalar TestScenario.uninfected[24].nic.mac1609_4 DroppedPacketsInMac 0
scalar TestScenario.uninfected[24].nic.mac1609_4 TooLittleTime 0
scalar TestScenario.uninfected[24].nic.mac1609_4 TimesIntoBackoff 0
scalar TestScenario.uninfected[24].nic.mac1609_4 SlotsBackoff 0
scalar TestScenario.uninfected[24].nic.mac1609_4 NumInternalContention 0
scalar TestScenario.uninfected[24].nic.mac1609_4 totalBusyTime 0
scalar TestScenario.uninfected[24].veinsmobility startTime 25
scalar TestScenario.uninfected[24].veinsmobility totalTime 48
scalar TestScenario.uninfected[24].veinsmobility stopTime 74
scalar TestScenario.uninfected[24].veinsmobility minSpeed 3.5200133527815
scalar TestScenario.uninfected[24].veinsmobility maxSpeed 13.882164987109
scalar TestScenario.uninfected[24].veinsmobility totalDistance 562.6042920539
scalar TestScenario.uninfected[24].veinsmobility totalCO2Emission 132.53056228732
scalar TestScenario.uninfected[7].appl generatedWSMs 0
scalar TestScenario.uninfected[7].appl receivedWSMs 0
scalar TestScenario.uninfected[7].appl generatedBSMs 0
scalar TestScenario.uninfected[7].appl receivedBSMs 0
scalar TestScenario.uninfected[7].appl generatedWSAs 0
scalar TestScenario.uninfected[7].appl receivedWSAs 0
scalar TestScenario.uninfected[7].nic.phy80211p busyTime 0
scalar TestScenario.uninfected[7].nic.mac1609_4 ReceivedUnicastPackets 0
scalar TestScenario.uninfected[7].nic.mac1609_4 ReceivedBroadcasts 0
scalar TestScenario.uninfected[7].nic.mac1609_4 SentPackets 0
scalar TestScenario.uninfected[7].nic.mac1609_4 SentAcknowledgements 0
scalar TestScenario.uninfected[7].nic.mac1609_4 SNIRLostPackets 0
scalar TestScenario.uninfected[7].nic.mac1609_4 RXTXLostPackets 0
scalar TestScenario.uninfected[7].nic.mac1609_4 TotalLostPackets 0
scalar TestScenario.uninfected[7].nic.mac1609_4 DroppedPacketsInMac 0
scalar TestScenario.uninfected[7].nic.mac1609_4 TooLittleTime 0
scalar TestScenario.uninfected[7].nic.mac1609_4 TimesIntoBackoff 0
scalar TestScenario.uninfected[7].nic.mac1609_4 SlotsBackoff 0
scalar TestScenario.uninfected[7].nic.mac1609_4 NumInternalContention 0
scalar TestScenario.uninfected[7].nic.mac1609_4 totalBusyTime 0
scalar TestScenario.uninfected[7].veinsmobility startTime 8
scalar TestScenario.uninfected[7].veinsmobility totalTime 67
scalar TestScenario.uninfected[7].veinsmobility stopTime 76
scalar TestScenario.uninfected[7].veinsmobility minSpeed 3.6135514888028
scalar TestScenario.uninfected[7].veinsmobility maxSpeed 13.885528955983
scalar TestScenario.uninfected[7].veinsmobility totalDistance 756.32709424303
scalar TestScenario.uninfected[7].veinsmobility totalCO2Emission 205.95382294118
scalar TestScenario.uninfected[12].appl generatedWSMs 0
scalar TestScenario.uninfected[12].appl receivedWSMs 0
scalar TestScenario.uninfected[12].appl generatedBSMs 0
scalar TestScenario.uninfected[12].appl receivedBSMs 0
scalar TestScenario.uninfected[12].appl generatedWSAs 0
scalar TestScenario.uninfected[12].appl receivedWSAs 0
scalar TestScenario.uninfected[12].nic.phy80211p busyTime 0
scalar TestScenario.uninfected[12].nic.mac1609_4 ReceivedUnicastPackets 0
scalar TestScenario.uninfected[12].nic.mac1609_4 ReceivedBroadcasts 0
scalar TestScenario.uninfected[12].nic.mac1609_4 SentPackets 0
scalar TestScenario.uninfected[12].nic.mac1609_4 SentAcknowledgements 0
scalar TestScenario.uninfected[12].nic.mac1609_4 SNIRLostPackets 0
scalar TestScenario.uninfected[12].nic.mac1609_4 RXTXLostPackets 0
scalar TestScenario.uninfected[12].nic.mac1609_4 TotalLostPackets 0
scalar TestScenario.uninfected[12].nic.mac1609_4 DroppedPacketsInMac 0
scalar TestScenario.uninfected[12].nic.mac1609_4 TooLittleTime 0
scalar TestScenario.uninfected[12].nic.mac1609_4 TimesIntoBackoff 0
scalar TestScenario.uninfected[12].nic.mac1609_4 SlotsBackoff 0
scalar TestScenario.uninfected[12].nic.mac1609_4 NumInternalContention 0
scalar TestScenario.uninfected[12].nic.mac1609_4 totalBusyTime 0
scalar TestScenario.uninfected[12].veinsmobility startTime 13
scalar TestScenario.uninfected[12].veinsmobility totalTime 62
scalar TestScenario.uninfected[12].veinsmobility stopTime 76
scalar TestScenario.uninfected[12].veinsmobility minSpeed 3.5579227411076
scalar TestScenario.uninfected[12].veinsmobility maxSpeed 13.888971277256
scalar TestScenario.uninfected[12].veinsmobility totalDistance 775.90877044028
scalar TestScenario.uninfected[12].veinsmobility totalCO2Emission 162.51391328391
scalar TestScenario.uninfected[11].appl generatedWSMs 0
scalar TestScenario.uninfected[11].appl receivedWSMs 0
scalar TestScenario.uninfected[11].appl generatedBSMs 0
scalar TestScenario.uninfected[11].appl receivedBSMs 0
scalar TestScenario.uninfected[11].appl generatedWSAs 0
scalar TestScenario.uninfected[11].appl receivedWSAs 0
scalar TestScenario.uninfected[11].nic.phy80211p busyTime 0
scalar TestScenario.uninfected[11].nic.mac1609_4 ReceivedUnicastPackets 0
scalar TestScenario.uninfected[11].nic.mac1609_4 ReceivedBroadcasts 0
scalar TestScenario.uninfected[11].nic.mac1609_4 SentPackets 0
scalar TestScenario.uninfected[11].nic.mac1609_4 SentAcknowledgements 0
scalar TestScenario.uninfected[11].nic.mac1609_4 SNIRLostPackets 0
scalar TestScenario.uninfected[11].nic.mac1609_4 RXTXLostPackets 0
scalar TestScenario.uninfected[11].nic.mac1609_4 TotalLostPackets 0
scalar TestScenario.uninfected[11].nic.mac1609_4 DroppedPacketsInMac 0
scalar TestScenario.uninfected[11].nic.mac1609_4 TooLittleTime 0
scalar TestScenario.uninfected[11].nic.mac1609_4 TimesIntoBackoff 0
scalar TestScenario.uninfected[11].nic.mac1609_4 SlotsBackoff 0
scalar TestScenario.uninfected[11].nic.mac1609_4 NumInternalContention 0
scalar TestScenario.uninfected[11].nic.mac1609_4 totalBusyTime 0
scalar TestScenario.uninfected[11].veinsmobility startTime 12
scalar TestScenario.uninfected[11].veinsmobility totalTime 64
scalar TestScenario.uninfected[11].veinsmobility stopTime 77
scalar TestScenario.uninfected[11].veinsmobility minSpeed 3.583265462276
scalar TestScenario.uninfected[11].veinsmobility maxSpeed 13.8882083526
scalar TestScenario.uninfected[11].veinsmobility totalDistance 751.90030852261
scalar TestScenario.uninfected[11].veinsmobility totalCO2Emission 180.61263694661
scalar TestScenario.uninfected[8].appl generatedWSMs 0
scalar TestScenario.uninfected[8].appl receivedWSMs 0
scalar TestScenario.uninfected[8].appl generatedBSMs 0
scalar TestScenario.uninfected[8].appl receivedBSMs 0
scalar TestScenario.uninfected[8].appl generatedWSAs 0
scalar TestScenario.uninfected[8].appl receivedWSAs 0
scalar TestScenario.uninfected[8].nic.phy80211p busyTime 0
scalar TestScenario.uninfected[8].nic.mac1609_4 ReceivedUnicastPackets 0
scalar TestScenario.uninfected[8].nic.mac1609_4 ReceivedBroadcasts 0
scalar TestScenario.uninfected[8].nic.mac1609_4 SentPackets 0
scalar TestScenario.uninfected[8].nic.mac1609_4 SentAcknowledgements 0
scalar TestScenario.uninfected[8].nic.mac1609_4 SNIRLostPackets 0
scalar TestScenario.uninfected[8].nic.mac1609_4 RXTXLostPackets 0
scalar TestScenario.uninfected[8].nic.mac1609_4 TotalLostPackets 0
scalar TestScenario.uninfected[8].nic.mac1609_4 DroppedPacketsInMac 0
scalar TestScenario.uninfected[8].nic.mac1609_4 TooLittleTime 0
scalar TestScenario.uninfected[8].nic.mac1609_4 TimesIntoBackoff 0
scalar TestScenario.uninfected[8].nic.mac1609_4 SlotsBackoff 0
scalar TestScenario.uninfected[8].nic.mac1609_4 NumInternalContention 0
scalar TestScenario.uninfected[8].nic.mac1609_4 totalBusyTime 0
scalar TestScenario.uninfected[8].veinsmobility startTime 9
scalar TestScenario.uninfected[8].veinsmobility totalTime 68
scalar TestScenario.uninfected[8].veinsmobility stopTime 78
scalar TestScenario.uninfected[8].veinsmobility minSpeed 3.9024381770133
scalar TestScenario.uninfected[8].veinsmobility maxSpeed 13.872800218579
scalar TestScenario.uninfected[8].veinsmobility totalDistance 767.1150539571
scalar TestScenario.uninfected[8].veinsmobility totalCO2Emission 186.20195301385
scalar TestScenario.uninfected[10].appl generatedWSMs 1
scalar TestScenario.uninfected[10].appl receivedWSMs 27
scalar TestScenario.uninfected[10].appl generatedBSMs 0
scalar TestScenario.uninfected[10].appl receivedBSMs 0
scalar TestScenario.uninfected[10].appl generatedWSAs 0
scalar TestScenario.uninfected[10].appl receivedWSAs 0
scalar TestScenario.uninfected[10].nic.phy80211p busyTime 8.9485714285714e-005
scalar TestScenario.uninfected[10].nic.mac1609_4 ReceivedUnicastPackets 0
scalar TestScenario.uninfected[10].nic.mac1609_4 ReceivedBroadcasts 27
scalar TestScenario.uninfected[10].nic.mac1609_4 SentPackets 1
scalar TestScenario.uninfected[10].nic.mac1609_4 SentAcknowledgements 0
scalar TestScenario.uninfected[10].nic.mac1609_4 SNIRLostPackets 0
scalar TestScenario.uninfected[10].nic.mac1609_4 RXTXLostPackets 0
scalar TestScenario.uninfected[10].nic.mac1609_4 TotalLostPackets 0
scalar TestScenario.uninfected[10].nic.mac1609_4 DroppedPacketsInMac 0
scalar TestScenario.uninfected[10].nic.mac1609_4 TooLittleTime 0
scalar TestScenario.uninfected[10].nic.mac1609_4 TimesIntoBackoff 1
scalar TestScenario.uninfected[10].nic.mac1609_4 SlotsBackoff 1
scalar TestScenario.uninfected[10].nic.mac1609_4 NumInternalContention 0
scalar TestScenario.uninfected[10].nic.mac1609_4 totalBusyTime 0.006497
scalar TestScenario.uninfected[10].veinsmobility startTime 11
scalar TestScenario.uninfected[10].veinsmobility totalTime 69
scalar TestScenario.uninfected[10].veinsmobility stopTime 81
scalar TestScenario.uninfected[10].veinsmobility minSpeed 3.7013248569434
scalar TestScenario.uninfected[10].veinsmobility maxSpeed 13.887227419673
scalar TestScenario.uninfected[10].veinsmobility totalDistance 767.56243950948
scalar TestScenario.uninfected[10].veinsmobility totalCO2Emission 210.31887239058
scalar TestScenario.uninfected[18].appl generatedWSMs 1
scalar TestScenario.uninfected[18].appl receivedWSMs 24
scalar TestScenario.uninfected[18].appl generatedBSMs 0
scalar TestScenario.uninfected[18].appl receivedBSMs 0
scalar TestScenario.uninfected[18].appl generatedWSAs 0
scalar TestScenario.uninfected[18].appl receivedWSAs 0
scalar TestScenario.uninfected[18].nic.phy80211p busyTime 8.5661538461538e-005
scalar TestScenario.uninfected[18].nic.mac1609_4 ReceivedUnicastPackets 0
scalar TestScenario.uninfected[18].nic.mac1609_4 ReceivedBroadcasts 24
scalar TestScenario.uninfected[18].nic.mac1609_4 SentPackets 1
scalar TestScenario.uninfected[18].nic.mac1609_4 SentAcknowledgements 0
scalar TestScenario.uninfected[18].nic.mac1609_4 SNIRLostPackets 0
scalar TestScenario.uninfected[18].nic.mac1609_4 RXTXLostPackets 0
scalar TestScenario.uninfected[18].nic.mac1609_4 TotalLostPackets 0
scalar TestScenario.uninfected[18].nic.mac1609_4 DroppedPacketsInMac 0
scalar TestScenario.uninfected[18].nic.mac1609_4 TooLittleTime 0
scalar TestScenario.uninfected[18].nic.mac1609_4 TimesIntoBackoff 1
scalar TestScenario.uninfected[18].nic.mac1609_4 SlotsBackoff 3
scalar TestScenario.uninfected[18].nic.mac1609_4 NumInternalContention 0
scalar TestScenario.uninfected[18].nic.mac1609_4 totalBusyTime 0.005801
scalar TestScenario.uninfected[18].veinsmobility startTime 19
scalar TestScenario.uninfected[18].veinsmobility totalTime 64
scalar TestScenario.uninfected[18].veinsmobility stopTime 84
scalar TestScenario.uninfected[18].veinsmobility minSpeed 3.5267794031277
scalar TestScenario.uninfected[18].veinsmobility maxSpeed 13.888921185893
scalar TestScenario.uninfected[18].veinsmobility totalDistance 752.93042690092
scalar TestScenario.uninfected[18].veinsmobility totalCO2Emission 180.40640228857
scalar TestScenario.uninfected[68].appl generatedWSMs 1
scalar TestScenario.uninfected[68].appl receivedWSMs 12
scalar TestScenario.uninfected[68].appl generatedBSMs 0
scalar TestScenario.uninfected[68].appl receivedBSMs 0
scalar TestScenario.uninfected[68].appl generatedWSAs 0
scalar TestScenario.uninfected[68].appl receivedWSAs 0
scalar TestScenario.uninfected[68].nic.phy80211p busyTime 0.000174
scalar TestScenario.uninfected[68].nic.mac1609_4 ReceivedUnicastPackets 0
scalar TestScenario.uninfected[68].nic.mac1609_4 ReceivedBroadcasts 12
scalar TestScenario.uninfected[68].nic.mac1609_4 SentPackets 1
scalar TestScenario.uninfected[68].nic.mac1609_4 SentAcknowledgements 0
scalar TestScenario.uninfected[68].nic.mac1609_4 SNIRLostPackets 0
scalar TestScenario.uninfected[68].nic.mac1609_4 RXTXLostPackets 0
scalar TestScenario.uninfected[68].nic.mac1609_4 TotalLostPackets 0
scalar TestScenario.uninfected[68].nic.mac1609_4 DroppedPacketsInMac 0
scalar TestScenario.uninfected[68].nic.mac1609_4 TooLittleTime 0
scalar TestScenario.uninfected[68].nic.mac1609_4 TimesIntoBackoff 1
scalar TestScenario.uninfected[68].nic.mac1609_4 SlotsBackoff 3
scalar TestScenario.uninfected[68].nic.mac1609_4 NumInternalContention 0
scalar TestScenario.uninfected[68].nic.mac1609_4 totalBusyTime 0.003017
scalar TestScenario.uninfected[68].veinsmobility startTime 69
scalar TestScenario.uninfected[68].veinsmobility totalTime 15
scalar TestScenario.uninfected[68].veinsmobility stopTime 85
scalar TestScenario.uninfected[68].veinsmobility minSpeed 4.1234339295881
scalar TestScenario.uninfected[68].veinsmobility maxSpeed 13.873642609164
scalar TestScenario.uninfected[68].veinsmobility totalDistance 172.61081104796
scalar TestScenario.uninfected[68].veinsmobility totalCO2Emission 49.81338914369
scalar TestScenario.uninfected[22].appl generatedWSMs 1
scalar TestScenario.uninfected[22].appl receivedWSMs 31
scalar TestScenario.uninfected[22].appl generatedBSMs 0
scalar TestScenario.uninfected[22].appl receivedBSMs 0
scalar TestScenario.uninfected[22].appl generatedWSAs 0
scalar TestScenario.uninfected[22].appl receivedWSAs 0
scalar TestScenario.uninfected[22].nic.phy80211p busyTime 0.000112375
scalar TestScenario.uninfected[22].nic.mac1609_4 ReceivedUnicastPackets 0
scalar TestScenario.uninfected[22].nic.mac1609_4 ReceivedBroadcasts 31
scalar TestScenario.uninfected[22].nic.mac1609_4 SentPackets 1
scalar TestScenario.uninfected[22].nic.mac1609_4 SentAcknowledgements 0
scalar TestScenario.uninfected[22].nic.mac1609_4 SNIRLostPackets 0
scalar TestScenario.uninfected[22].nic.mac1609_4 RXTXLostPackets 0
scalar TestScenario.uninfected[22].nic.mac1609_4 TotalLostPackets 0
scalar TestScenario.uninfected[22].nic.mac1609_4 DroppedPacketsInMac 0
scalar TestScenario.uninfected[22].nic.mac1609_4 TooLittleTime 0
scalar TestScenario.uninfected[22].nic.mac1609_4 TimesIntoBackoff 1
scalar TestScenario.uninfected[22].nic.mac1609_4 SlotsBackoff 3
scalar TestScenario.uninfected[22].nic.mac1609_4 NumInternalContention 0
scalar TestScenario.uninfected[22].nic.mac1609_4 totalBusyTime 0.007425
scalar TestScenario.uninfected[22].veinsmobility startTime 23
scalar TestScenario.uninfected[22].veinsmobility totalTime 63
scalar TestScenario.uninfected[22].veinsmobility stopTime 87
scalar TestScenario.uninfected[22].veinsmobility minSpeed 0
scalar TestScenario.uninfected[22].veinsmobility maxSpeed 13.888977302613
scalar TestScenario.uninfected[22].veinsmobility totalDistance 566.21873959026
scalar TestScenario.uninfected[22].veinsmobility totalCO2Emission 172.54272135183
scalar TestScenario.exploited[35].appl generatedWSMs 1
scalar TestScenario.exploited[35].appl receivedWSMs 29
scalar TestScenario.exploited[35].appl generatedBSMs 0
scalar TestScenario.exploited[35].appl receivedBSMs 0
scalar TestScenario.exploited[35].appl generatedWSAs 0
scalar TestScenario.exploited[35].appl receivedWSAs 0
scalar TestScenario.exploited[35].nic.phy80211p busyTime 0.00012694339622641
scalar TestScenario.exploited[35].nic.mac1609_4 ReceivedUnicastPackets 0
scalar TestScenario.exploited[35].nic.mac1609_4 ReceivedBroadcasts 29
scalar TestScenario.exploited[35].nic.mac1609_4 SentPackets 1
scalar TestScenario.exploited[35].nic.mac1609_4 SentAcknowledgements 0
scalar TestScenario.exploited[35].nic.mac1609_4 SNIRLostPackets 0
scalar TestScenario.exploited[35].nic.mac1609_4 RXTXLostPackets 0
scalar TestScenario.exploited[35].nic.mac1609_4 TotalLostPackets 0
scalar TestScenario.exploited[35].nic.mac1609_4 DroppedPacketsInMac 0
scalar TestScenario.exploited[35].nic.mac1609_4 TooLittleTime 0
scalar TestScenario.exploited[35].nic.mac1609_4 TimesIntoBackoff 1
scalar TestScenario.exploited[35].nic.mac1609_4 SlotsBackoff 0
scalar TestScenario.exploited[35].nic.mac1609_4 NumInternalContention 0
scalar TestScenario.exploited[35].nic.mac1609_4 totalBusyTime 0.006961
scalar TestScenario.exploited[35].veinsmobility startTime 36
scalar TestScenario.exploited[35].veinsmobility totalTime 52
scalar TestScenario.exploited[35].veinsmobility stopTime 89
scalar TestScenario.exploited[35].veinsmobility minSpeed 3.6098785398109
scalar TestScenario.exploited[35].veinsmobility maxSpeed 13.887914324049
scalar TestScenario.exploited[35].veinsmobility totalDistance 568.62790474043
scalar TestScenario.exploited[35].veinsmobility totalCO2Emission 158.24533073118
scalar TestScenario.uninfected[21].appl generatedWSMs 1
scalar TestScenario.uninfected[21].appl receivedWSMs 9
scalar TestScenario.uninfected[21].appl generatedBSMs 0
scalar TestScenario.uninfected[21].appl receivedBSMs 0
scalar TestScenario.uninfected[21].appl generatedWSAs 0
scalar TestScenario.uninfected[21].appl receivedWSAs 0
scalar TestScenario.uninfected[21].nic.phy80211p busyTime 3.1164179104478e-005
scalar TestScenario.uninfected[21].nic.mac1609_4 ReceivedUnicastPackets 0
scalar TestScenario.uninfected[21].nic.mac1609_4 ReceivedBroadcasts 9
scalar TestScenario.uninfected[21].nic.mac1609_4 SentPackets 1
scalar TestScenario.uninfected[21].nic.mac1609_4 SentAcknowledgements 0
scalar TestScenario.uninfected[21].nic.mac1609_4 SNIRLostPackets 0
scalar TestScenario.uninfected[21].nic.mac1609_4 RXTXLostPackets 0
scalar TestScenario.uninfected[21].nic.mac1609_4 TotalLostPackets 0
scalar TestScenario.uninfected[21].nic.mac1609_4 DroppedPacketsInMac 0
scalar TestScenario.uninfected[21].nic.mac1609_4 TooLittleTime 0
scalar TestScenario.uninfected[21].nic.mac1609_4 TimesIntoBackoff 1
scalar TestScenario.uninfected[21].nic.mac1609_4 SlotsBackoff 1
scalar TestScenario.uninfected[21].nic.mac1609_4 NumInternalContention 0
scalar TestScenario.uninfected[21].nic.mac1609_4 totalBusyTime 0.002321
scalar TestScenario.uninfected[21].veinsmobility startTime 22
scalar TestScenario.uninfected[21].veinsmobility totalTime 66
scalar TestScenario.uninfected[21].veinsmobility stopTime 89
scalar TestScenario.uninfected[21].veinsmobility minSpeed 3.5618557962599
scalar TestScenario.uninfected[21].veinsmobility maxSpeed 13.885442570765
scalar TestScenario.uninfected[21].veinsmobility totalDistance 771.25845515356
scalar TestScenario.uninfected[21].veinsmobility totalCO2Emission 187.91382605572
scalar TestScenario.exploited[76].appl generatedWSMs 1
scalar TestScenario.exploited[76].appl receivedWSMs 5
scalar TestScenario.exploited[76].appl generatedBSMs 0
scalar TestScenario.exploited[76].appl receivedBSMs 0
scalar TestScenario.exploited[76].appl generatedWSAs 0
scalar TestScenario.exploited[76].appl receivedWSAs 0
scalar TestScenario.exploited[76].nic.phy80211p busyTime 7.25e-005
scalar TestScenario.exploited[76].nic.mac1609_4 ReceivedUnicastPackets 0
scalar TestScenario.exploited[76].nic.mac1609_4 ReceivedBroadcasts 5
scalar TestScenario.exploited[76].nic.mac1609_4 SentPackets 1
scalar TestScenario.exploited[76].nic.mac1609_4 SentAcknowledgements 0
scalar TestScenario.exploited[76].nic.mac1609_4 SNIRLostPackets 0
scalar TestScenario.exploited[76].nic.mac1609_4 RXTXLostPackets 0
scalar TestScenario.exploited[76].nic.mac1609_4 TotalLostPackets 0
scalar TestScenario.exploited[76].nic.mac1609_4 DroppedPacketsInMac 0
scalar TestScenario.exploited[76].nic.mac1609_4 TooLittleTime 0
scalar TestScenario.exploited[76].nic.mac1609_4 TimesIntoBackoff 1
scalar TestScenario.exploited[76].nic.mac1609_4 SlotsBackoff 2
scalar TestScenario.exploited[76].nic.mac1609_4 NumInternalContention 0
scalar TestScenario.exploited[76].nic.mac1609_4 totalBusyTime 0.001393
scalar TestScenario.exploited[76].veinsmobility startTime 77
scalar TestScenario.exploited[76].veinsmobility totalTime 15
scalar TestScenario.exploited[76].veinsmobility stopTime 93
scalar TestScenario.exploited[76].veinsmobility minSpeed 4.1641879789048
scalar TestScenario.exploited[76].veinsmobility maxSpeed 13.887609306162
scalar TestScenario.exploited[76].veinsmobility totalDistance 173.74189506443
scalar TestScenario.exploited[76].veinsmobility totalCO2Emission 49.998302579211
scalar TestScenario.uninfected[42].appl generatedWSMs 1
scalar TestScenario.uninfected[42].appl receivedWSMs 31
scalar TestScenario.uninfected[42].appl generatedBSMs 0
scalar TestScenario.uninfected[42].appl receivedBSMs 0
scalar TestScenario.uninfected[42].appl generatedWSAs 0
scalar TestScenario.uninfected[42].appl receivedWSAs 0
scalar TestScenario.uninfected[42].nic.phy80211p busyTime 0.00013830769230769
scalar TestScenario.uninfected[42].nic.mac1609_4 ReceivedUnicastPackets 0
scalar TestScenario.uninfected[42].nic.mac1609_4 ReceivedBroadcasts 31
scalar TestScenario.uninfected[42].nic.mac1609_4 SentPackets 1
scalar TestScenario.uninfected[42].nic.mac1609_4 SentAcknowledgements 0
scalar TestScenario.uninfected[42].nic.mac1609_4 SNIRLostPackets 0
scalar TestScenario.uninfected[42].nic.mac1609_4 RXTXLostPackets 0
scalar TestScenario.uninfected[42].nic.mac1609_4 TotalLostPackets 0
scalar TestScenario.uninfected[42].nic.mac1609_4 DroppedPacketsInMac 0
scalar TestScenario.uninfected[42].nic.mac1609_4 TooLittleTime 0
scalar TestScenario.uninfected[42].nic.mac1609_4 TimesIntoBackoff 1
scalar TestScenario.uninfected[42].nic.mac1609_4 SlotsBackoff 2
scalar TestScenario.uninfected[42].nic.mac1609_4 NumInternalContention 0
scalar TestScenario.uninfected[42].nic.mac1609_4 totalBusyTime 0.007425
scalar TestScenario.uninfected[42].veinsmobility startTime 43
scalar TestScenario.uninfected[42].veinsmobility totalTime 51
scalar TestScenario.uninfected[42].veinsmobility stopTime 95
scalar TestScenario.uninfected[42].veinsmobility minSpeed 3.7348991208054
scalar TestScenario.uninfected[42].veinsmobility maxSpeed 13.88431689189
scalar TestScenario.uninfected[42].veinsmobility totalDistance 568.7995479659
scalar TestScenario.uninfected[42].veinsmobility totalCO2Emission 157.88557551772
scalar TestScenario.uninfected[14].appl generatedWSMs 1
scalar TestScenario.uninfected[14].appl receivedWSMs 28
scalar TestScenario.uninfected[14].appl generatedBSMs 0
scalar TestScenario.uninfected[14].appl receivedBSMs 0
scalar TestScenario.uninfected[14].appl generatedWSAs 0
scalar TestScenario.uninfected[14].appl receivedWSAs 0
scalar TestScenario.uninfected[14].nic.phy80211p busyTime 7.8265060240964e-005
scalar TestScenario.uninfected[14].nic.mac1609_4 ReceivedUnicastPackets 0
scalar TestScenario.uninfected[14].nic.mac1609_4 ReceivedBroadcasts 28
scalar TestScenario.uninfected[14].nic.mac1609_4 SentPackets 1
scalar TestScenario.uninfected[14].nic.mac1609_4 SentAcknowledgements 0
scalar TestScenario.uninfected[14].nic.mac1609_4 SNIRLostPackets 0
scalar TestScenario.uninfected[14].nic.mac1609_4 RXTXLostPackets 0
scalar TestScenario.uninfected[14].nic.mac1609_4 TotalLostPackets 0
scalar TestScenario.uninfected[14].nic.mac1609_4 DroppedPacketsInMac 0
scalar TestScenario.uninfected[14].nic.mac1609_4 TooLittleTime 0
scalar TestScenario.uninfected[14].nic.mac1609_4 TimesIntoBackoff 1
scalar TestScenario.uninfected[14].nic.mac1609_4 SlotsBackoff 1
scalar TestScenario.uninfected[14].nic.mac1609_4 NumInternalContention 0
scalar TestScenario.uninfected[14].nic.mac1609_4 totalBusyTime 0.006729
scalar TestScenario.uninfected[14].veinsmobility startTime 15
scalar TestScenario.uninfected[14].veinsmobility totalTime 82
scalar TestScenario.uninfected[14].veinsmobility stopTime 98
scalar TestScenario.uninfected[14].veinsmobility minSpeed 0
scalar TestScenario.uninfected[14].veinsmobility maxSpeed 13.886808744448
scalar TestScenario.uninfected[14].veinsmobility totalDistance 758.51697712462
scalar TestScenario.uninfected[14].veinsmobility totalCO2Emission 222.47687859532
scalar TestScenario.exploited[26].appl generatedWSMs 1
scalar TestScenario.exploited[26].appl receivedWSMs 39
scalar TestScenario.exploited[26].appl generatedBSMs 0
scalar TestScenario.exploited[26].appl receivedBSMs 0
scalar TestScenario.exploited[26].appl generatedWSAs 0
scalar TestScenario.exploited[26].appl receivedWSAs 0
scalar TestScenario.exploited[26].nic.phy80211p busyTime 0.00012743661971831
scalar TestScenario.exploited[26].nic.mac1609_4 ReceivedUnicastPackets 0
scalar TestScenario.exploited[26].nic.mac1609_4 ReceivedBroadcasts 39
scalar TestScenario.exploited[26].nic.mac1609_4 SentPackets 1
scalar TestScenario.exploited[26].nic.mac1609_4 SentAcknowledgements 0
scalar TestScenario.exploited[26].nic.mac1609_4 SNIRLostPackets 0
scalar TestScenario.exploited[26].nic.mac1609_4 RXTXLostPackets 0
scalar TestScenario.exploited[26].nic.mac1609_4 TotalLostPackets 0
scalar TestScenario.exploited[26].nic.mac1609_4 DroppedPacketsInMac 0
scalar TestScenario.exploited[26].nic.mac1609_4 TooLittleTime 0
scalar TestScenario.exploited[26].nic.mac1609_4 TimesIntoBackoff 1
scalar TestScenario.exploited[26].nic.mac1609_4 SlotsBackoff 2
scalar TestScenario.exploited[26].nic.mac1609_4 NumInternalContention 0
scalar TestScenario.exploited[26].nic.mac1609_4 totalBusyTime 0.009281
scalar TestScenario.exploited[26].veinsmobility startTime 27
scalar TestScenario.exploited[26].veinsmobility totalTime 70
scalar TestScenario.exploited[26].veinsmobility stopTime 98
scalar TestScenario.exploited[26].veinsmobility minSpeed 3.1867696735599
scalar TestScenario.exploited[26].veinsmobility maxSpeed 13.889547443429
scalar TestScenario.exploited[26].veinsmobility totalDistance 746.39847531815
scalar TestScenario.exploited[26].veinsmobility totalCO2Emission 210.65431641183
scalar TestScenario.uninfected[4].appl generatedWSMs 1
scalar TestScenario.uninfected[4].appl receivedWSMs 29
scalar TestScenario.uninfected[4].appl generatedBSMs 0
scalar TestScenario.uninfected[4].appl receivedBSMs 0
scalar TestScenario.uninfected[4].appl generatedWSAs 0
scalar TestScenario.uninfected[4].appl receivedWSAs 0
scalar TestScenario.uninfected[4].nic.phy80211p busyTime 6.9360824742268e-005
scalar TestScenario.uninfected[4].nic.mac1609_4 ReceivedUnicastPackets 0
scalar TestScenario.uninfected[4].nic.mac1609_4 ReceivedBroadcasts 29
scalar TestScenario.uninfected[4].nic.mac1609_4 SentPackets 1
scalar TestScenario.uninfected[4].nic.mac1609_4 SentAcknowledgements 0
scalar TestScenario.uninfected[4].nic.mac1609_4 SNIRLostPackets 0
scalar TestScenario.uninfected[4].nic.mac1609_4 RXTXLostPackets 0
scalar TestScenario.uninfected[4].nic.mac1609_4 TotalLostPackets 0
scalar TestScenario.uninfected[4].nic.mac1609_4 DroppedPacketsInMac 0
scalar TestScenario.uninfected[4].nic.mac1609_4 TooLittleTime 0
scalar TestScenario.uninfected[4].nic.mac1609_4 TimesIntoBackoff 1
scalar TestScenario.uninfected[4].nic.mac1609_4 SlotsBackoff 3
scalar TestScenario.uninfected[4].nic.mac1609_4 NumInternalContention 0
scalar TestScenario.uninfected[4].nic.mac1609_4 totalBusyTime 0.006961
scalar TestScenario.uninfected[4].veinsmobility startTime 5
scalar TestScenario.uninfected[4].veinsmobility totalTime 96
scalar TestScenario.uninfected[4].veinsmobility stopTime 102
scalar TestScenario.uninfected[4].veinsmobility minSpeed 0
scalar TestScenario.uninfected[4].veinsmobility maxSpeed 13.88905346809
scalar TestScenario.uninfected[4].veinsmobility totalDistance 954.91271675253
scalar TestScenario.uninfected[4].veinsmobility totalCO2Emission 255.16955356089
scalar TestScenario.uninfected[50].appl generatedWSMs 1
scalar TestScenario.uninfected[50].appl receivedWSMs 35
scalar TestScenario.uninfected[50].appl generatedBSMs 0
scalar TestScenario.uninfected[50].appl receivedBSMs 0
scalar TestScenario.uninfected[50].appl generatedWSAs 0
scalar TestScenario.uninfected[50].appl receivedWSAs 0
scalar TestScenario.uninfected[50].nic.phy80211p busyTime 0.00014763636363636
scalar TestScenario.uninfected[50].nic.mac1609_4 ReceivedUnicastPackets 0
scalar TestScenario.uninfected[50].nic.mac1609_4 ReceivedBroadcasts 35
scalar TestScenario.uninfected[50].nic.mac1609_4 SentPackets 1
scalar TestScenario.uninfected[50].nic.mac1609_4 SentAcknowledgements 0
scalar TestScenario.uninfected[50].nic.mac1609_4 SNIRLostPackets 0
scalar TestScenario.uninfected[50].nic.mac1609_4 RXTXLostPackets 0
scalar TestScenario.uninfected[50].nic.mac1609_4 TotalLostPackets 0
scalar TestScenario.uninfected[50].nic.mac1609_4 DroppedPacketsInMac 0
scalar TestScenario.uninfected[50].nic.mac1609_4 TooLittleTime 0
scalar TestScenario.uninfected[50].nic.mac1609_4 TimesIntoBackoff 1
scalar TestScenario.uninfected[50].nic.mac1609_4 SlotsBackoff 1
scalar TestScenario.uninfected[50].nic.mac1609_4 NumInternalContention 0
scalar TestScenario.uninfected[50].nic.mac1609_4 totalBusyTime 0.008353
scalar TestScenario.uninfected[50].veinsmobility startTime 51
scalar TestScenario.uninfected[50].veinsmobility totalTime 54
scalar TestScenario.uninfected[50].veinsmobility stopTime 106
scalar TestScenario.uninfected[50].veinsmobility minSpeed 3.9508351739918
scalar TestScenario.uninfected[50].veinsmobility maxSpeed 13.880623876164
scalar TestScenario.uninfected[50].veinsmobility totalDistance 571.45659039742
scalar TestScenario.uninfected[50].veinsmobility totalCO2Emission 157.69854772626
scalar TestScenario.uninfected[72].appl generatedWSMs 1
scalar TestScenario.uninfected[72].appl receivedWSMs 30
scalar TestScenario.uninfected[72].appl generatedBSMs 0
scalar TestScenario.uninfected[72].appl receivedBSMs 0
scalar TestScenario.uninfected[72].appl generatedWSAs 0
scalar TestScenario.uninfected[72].appl receivedWSAs 0
scalar TestScenario.uninfected[72].nic.phy80211p busyTime 0.00020470588235294
scalar TestScenario.uninfected[72].nic.mac1609_4 ReceivedUnicastPackets 0
scalar TestScenario.uninfected[72].nic.mac1609_4 ReceivedBroadcasts 30
scalar TestScenario.uninfected[72].nic.mac1609_4 SentPackets 1
scalar TestScenario.uninfected[72].nic.mac1609_4 SentAcknowledgements 0
scalar TestScenario.uninfected[72].nic.mac1609_4 SNIRLostPackets 0
scalar TestScenario.uninfected[72].nic.mac1609_4 RXTXLostPackets 0
scalar TestScenario.uninfected[72].nic.mac1609_4 TotalLostPackets 0
scalar TestScenario.uninfected[72].nic.mac1609_4 DroppedPacketsInMac 0
scalar TestScenario.uninfected[72].nic.mac1609_4 TooLittleTime 0
scalar TestScenario.uninfected[72].nic.mac1609_4 TimesIntoBackoff 1
scalar TestScenario.uninfected[72].nic.mac1609_4 SlotsBackoff 2
scalar TestScenario.uninfected[72].nic.mac1609_4 NumInternalContention 0
scalar TestScenario.uninfected[72].nic.mac1609_4 totalBusyTime 0.007193
scalar TestScenario.uninfected[72].veinsmobility startTime 73
scalar TestScenario.uninfected[72].veinsmobility totalTime 33
scalar TestScenario.uninfected[72].veinsmobility stopTime 107
scalar TestScenario.uninfected[72].veinsmobility minSpeed 3.3185092995717
scalar TestScenario.uninfected[72].veinsmobility maxSpeed 13.886687221671
scalar TestScenario.uninfected[72].veinsmobility totalDistance 362.10267899537
scalar TestScenario.uninfected[72].veinsmobility totalCO2Emission 102.86083136195
scalar TestScenario.uninfected[15].appl generatedWSMs 1
scalar TestScenario.uninfected[15].appl receivedWSMs 13
scalar TestScenario.uninfected[15].appl generatedBSMs 0
scalar TestScenario.uninfected[15].appl receivedBSMs 0
scalar TestScenario.uninfected[15].appl generatedWSAs 0
scalar TestScenario.uninfected[15].appl receivedWSAs 0
scalar TestScenario.uninfected[15].nic.phy80211p busyTime 3.3142857142857e-005
scalar TestScenario.uninfected[15].nic.mac1609_4 ReceivedUnicastPackets 0
scalar TestScenario.uninfected[15].nic.mac1609_4 ReceivedBroadcasts 13
scalar TestScenario.uninfected[15].nic.mac1609_4 SentPackets 1
scalar TestScenario.uninfected[15].nic.mac1609_4 SentAcknowledgements 0
scalar TestScenario.uninfected[15].nic.mac1609_4 SNIRLostPackets 0
scalar TestScenario.uninfected[15].nic.mac1609_4 RXTXLostPackets 0
scalar TestScenario.uninfected[15].nic.mac1609_4 TotalLostPackets 0
scalar TestScenario.uninfected[15].nic.mac1609_4 DroppedPacketsInMac 0
scalar TestScenario.uninfected[15].nic.mac1609_4 TooLittleTime 0
scalar TestScenario.uninfected[15].nic.mac1609_4 TimesIntoBackoff 1
scalar TestScenario.uninfected[15].nic.mac1609_4 SlotsBackoff 2
scalar TestScenario.uninfected[15].nic.mac1609_4 NumInternalContention 0
scalar TestScenario.uninfected[15].nic.mac1609_4 totalBusyTime 0.003249
scalar TestScenario.uninfected[15].veinsmobility startTime 16
scalar TestScenario.uninfected[15].veinsmobility totalTime 90
scalar TestScenario.uninfected[15].veinsmobility stopTime 107
scalar TestScenario.uninfected[15].veinsmobility minSpeed 3.548656898085
scalar TestScenario.uninfected[15].veinsmobility maxSpeed 13.8870143887
scalar TestScenario.uninfected[15].veinsmobility totalDistance 956.22266967647
scalar TestScenario.uninfected[15].veinsmobility totalCO2Emission 263.6020413136
scalar TestScenario.uninfected[29].appl generatedWSMs 1
scalar TestScenario.uninfected[29].appl receivedWSMs 32
scalar TestScenario.uninfected[29].appl generatedBSMs 0
scalar TestScenario.uninfected[29].appl receivedBSMs 0
scalar TestScenario.uninfected[29].appl generatedWSAs 0
scalar TestScenario.uninfected[29].appl receivedWSAs 0
scalar TestScenario.uninfected[29].nic.phy80211p busyTime 8.6325581395349e-005
scalar TestScenario.uninfected[29].nic.mac1609_4 ReceivedUnicastPackets 0
scalar TestScenario.uninfected[29].nic.mac1609_4 ReceivedBroadcasts 32
scalar TestScenario.uninfected[29].nic.mac1609_4 SentPackets 1
scalar TestScenario.uninfected[29].nic.mac1609_4 SentAcknowledgements 0
scalar TestScenario.uninfected[29].nic.mac1609_4 SNIRLostPackets 0
scalar TestScenario.uninfected[29].nic.mac1609_4 RXTXLostPackets 0
scalar TestScenario.uninfected[29].nic.mac1609_4 TotalLostPackets 0
scalar TestScenario.uninfected[29].nic.mac1609_4 DroppedPacketsInMac 0
scalar TestScenario.uninfected[29].nic.mac1609_4 TooLittleTime 0
scalar TestScenario.uninfected[29].nic.mac1609_4 TimesIntoBackoff 1
scalar TestScenario.uninfected[29].nic.mac1609_4 SlotsBackoff 0
scalar TestScenario.uninfected[29].nic.mac1609_4 NumInternalContention 0
scalar TestScenario.uninfected[29].nic.mac1609_4 totalBusyTime 0.007657
scalar TestScenario.uninfected[29].veinsmobility startTime 30
scalar TestScenario.uninfected[29].veinsmobility totalTime 85
scalar TestScenario.uninfected[29].veinsmobility stopTime 116
scalar TestScenario.uninfected[29].veinsmobility minSpeed 3.3387934441205
scalar TestScenario.uninfected[29].veinsmobility maxSpeed 13.889162013922
scalar TestScenario.uninfected[29].veinsmobility totalDistance 955.15454111294
scalar TestScenario.uninfected[29].veinsmobility totalCO2Emission 244.05081280314
scalar TestScenario.uninfected[36].appl generatedWSMs 1
scalar TestScenario.uninfected[36].appl receivedWSMs 17
scalar TestScenario.uninfected[36].appl generatedBSMs 0
scalar TestScenario.uninfected[36].appl receivedBSMs 0
scalar TestScenario.uninfected[36].appl generatedWSAs 0
scalar TestScenario.uninfected[36].appl receivedWSAs 0
scalar TestScenario.uninfected[36].nic.phy80211p busyTime 4.809756097561e-005
scalar TestScenario.uninfected[36].nic.mac1609_4 ReceivedUnicastPackets 0
scalar TestScenario.uninfected[36].nic.mac1609_4 ReceivedBroadcasts 17
scalar TestScenario.uninfected[36].nic.mac1609_4 SentPackets 1
scalar TestScenario.uninfected[36].nic.mac1609_4 SentAcknowledgements 0
scalar TestScenario.uninfected[36].nic.mac1609_4 SNIRLostPackets 0
scalar TestScenario.uninfected[36].nic.mac1609_4 RXTXLostPackets 0
scalar TestScenario.uninfected[36].nic.mac1609_4 TotalLostPackets 0
scalar TestScenario.uninfected[36].nic.mac1609_4 DroppedPacketsInMac 0
scalar TestScenario.uninfected[36].nic.mac1609_4 TooLittleTime 0
scalar TestScenario.uninfected[36].nic.mac1609_4 TimesIntoBackoff 1
scalar TestScenario.uninfected[36].nic.mac1609_4 SlotsBackoff 2
scalar TestScenario.uninfected[36].nic.mac1609_4 NumInternalContention 0
scalar TestScenario.uninfected[36].nic.mac1609_4 totalBusyTime 0.004177
scalar TestScenario.uninfected[36].veinsmobility startTime 37
scalar TestScenario.uninfected[36].veinsmobility totalTime 81
scalar TestScenario.uninfected[36].veinsmobility stopTime 119
scalar TestScenario.uninfected[36].veinsmobility minSpeed 3.6213958902924
scalar TestScenario.uninfected[36].veinsmobility maxSpeed 13.884932894786
scalar TestScenario.uninfected[36].veinsmobility totalDistance 965.14919695364
scalar TestScenario.uninfected[36].veinsmobility totalCO2Emission 234.44576636924
scalar TestScenario.uninfected[66].appl generatedWSMs 1
scalar TestScenario.uninfected[66].appl receivedWSMs 10
scalar TestScenario.uninfected[66].appl generatedBSMs 0
scalar TestScenario.uninfected[66].appl receivedBSMs 0
scalar TestScenario.uninfected[66].appl generatedWSAs 0
scalar TestScenario.uninfected[66].appl receivedWSAs 0
scalar TestScenario.uninfected[66].nic.phy80211p busyTime 4.377358490566e-005
scalar TestScenario.uninfected[66].nic.mac1609_4 ReceivedUnicastPackets 0
scalar TestScenario.uninfected[66].nic.mac1609_4 ReceivedBroadcasts 10
scalar TestScenario.uninfected[66].nic.mac1609_4 SentPackets 1
scalar TestScenario.uninfected[66].nic.mac1609_4 SentAcknowledgements 0
scalar TestScenario.uninfected[66].nic.mac1609_4 SNIRLostPackets 0
scalar TestScenario.uninfected[66].nic.mac1609_4 RXTXLostPackets 0
scalar TestScenario.uninfected[66].nic.mac1609_4 TotalLostPackets 0
scalar TestScenario.uninfected[66].nic.mac1609_4 DroppedPacketsInMac 0
scalar TestScenario.uninfected[66].nic.mac1609_4 TooLittleTime 0
scalar TestScenario.uninfected[66].nic.mac1609_4 TimesIntoBackoff 1
scalar TestScenario.uninfected[66].nic.mac1609_4 SlotsBackoff 0
scalar TestScenario.uninfected[66].nic.mac1609_4 NumInternalContention 0
scalar TestScenario.uninfected[66].nic.mac1609_4 totalBusyTime 0.002553
scalar TestScenario.uninfected[66].veinsmobility startTime 67
scalar TestScenario.uninfected[66].veinsmobility totalTime 52
scalar TestScenario.uninfected[66].veinsmobility stopTime 120
scalar TestScenario.uninfected[66].veinsmobility minSpeed 3.65
scalar TestScenario.uninfected[66].veinsmobility maxSpeed 13.880893175832
scalar TestScenario.uninfected[66].veinsmobility totalDistance 568.24292093221
scalar TestScenario.uninfected[66].veinsmobility totalCO2Emission 158.59714630679
scalar TestScenario.uninfected[37].appl generatedWSMs 1
scalar TestScenario.uninfected[37].appl receivedWSMs 28
scalar TestScenario.uninfected[37].appl generatedBSMs 0
scalar TestScenario.uninfected[37].appl receivedBSMs 0
scalar TestScenario.uninfected[37].appl generatedWSAs 0
scalar TestScenario.uninfected[37].appl receivedWSAs 0
scalar TestScenario.uninfected[37].nic.phy80211p busyTime 7.9219512195122e-005
scalar TestScenario.uninfected[37].nic.mac1609_4 ReceivedUnicastPackets 0
scalar TestScenario.uninfected[37].nic.mac1609_4 ReceivedBroadcasts 28
scalar TestScenario.uninfected[37].nic.mac1609_4 SentPackets 1
scalar TestScenario.uninfected[37].nic.mac1609_4 SentAcknowledgements 0
scalar TestScenario.uninfected[37].nic.mac1609_4 SNIRLostPackets 0
scalar TestScenario.uninfected[37].nic.mac1609_4 RXTXLostPackets 0
scalar TestScenario.uninfected[37].nic.mac1609_4 TotalLostPackets 0
scalar TestScenario.uninfected[37].nic.mac1609_4 DroppedPacketsInMac 0
scalar TestScenario.uninfected[37].nic.mac1609_4 TooLittleTime 0
scalar TestScenario.uninfected[37].nic.mac1609_4 TimesIntoBackoff 1
scalar TestScenario.uninfected[37].nic.mac1609_4 SlotsBackoff 3
scalar TestScenario.uninfected[37].nic.mac1609_4 NumInternalContention 0
scalar TestScenario.uninfected[37].nic.mac1609_4 totalBusyTime 0.006729
scalar TestScenario.uninfected[37].veinsmobility startTime 38
scalar TestScenario.uninfected[37].veinsmobility totalTime 81
scalar TestScenario.uninfected[37].veinsmobility stopTime 120
scalar TestScenario.uninfected[37].veinsmobility minSpeed 3.9513962805774
scalar TestScenario.uninfected[37].veinsmobility maxSpeed 13.889648214264
scalar TestScenario.uninfected[37].veinsmobility totalDistance 976.7325742515
scalar TestScenario.uninfected[37].veinsmobility totalCO2Emission 209.00014796769
scalar TestScenario.uninfected[65].appl generatedWSMs 1
scalar TestScenario.uninfected[65].appl receivedWSMs 16
scalar TestScenario.uninfected[65].appl generatedBSMs 0
scalar TestScenario.uninfected[65].appl receivedBSMs 0
scalar TestScenario.uninfected[65].appl generatedWSAs 0
scalar TestScenario.uninfected[65].appl receivedWSAs 0
scalar TestScenario.uninfected[65].nic.phy80211p busyTime 5.9870967741935e-005
scalar TestScenario.uninfected[65].nic.mac1609_4 ReceivedUnicastPackets 0
scalar TestScenario.uninfected[65].nic.mac1609_4 ReceivedBroadcasts 16
scalar TestScenario.uninfected[65].nic.mac1609_4 SentPackets 1
scalar TestScenario.uninfected[65].nic.mac1609_4 SentAcknowledgements 0
scalar TestScenario.uninfected[65].nic.mac1609_4 SNIRLostPackets 0
scalar TestScenario.uninfected[65].nic.mac1609_4 RXTXLostPackets 0
scalar TestScenario.uninfected[65].nic.mac1609_4 TotalLostPackets 0
scalar TestScenario.uninfected[65].nic.mac1609_4 DroppedPacketsInMac 0
scalar TestScenario.uninfected[65].nic.mac1609_4 TooLittleTime 0
scalar TestScenario.uninfected[65].nic.mac1609_4 TimesIntoBackoff 1
scalar TestScenario.uninfected[65].nic.mac1609_4 SlotsBackoff 3
scalar TestScenario.uninfected[65].nic.mac1609_4 NumInternalContention 0
scalar TestScenario.uninfected[65].nic.mac1609_4 totalBusyTime 0.003945
scalar TestScenario.uninfected[65].veinsmobility startTime 66
scalar TestScenario.uninfected[65].veinsmobility totalTime 61
scalar TestScenario.uninfected[65].veinsmobility stopTime 128
scalar TestScenario.uninfected[65].veinsmobility minSpeed 4.1198577870724
scalar TestScenario.uninfected[65].veinsmobility maxSpeed 13.886653317141
scalar TestScenario.uninfected[65].veinsmobility totalDistance 775.71485887654
scalar TestScenario.uninfected[65].veinsmobility totalCO2Emission 158.81204095044
scalar TestScenario.uninfected[64].appl generatedWSMs 1
scalar TestScenario.uninfected[64].appl receivedWSMs 22
scalar TestScenario.uninfected[64].appl generatedBSMs 0
scalar TestScenario.uninfected[64].appl receivedBSMs 0
scalar TestScenario.uninfected[64].appl generatedWSAs 0
scalar TestScenario.uninfected[64].appl receivedWSAs 0
scalar TestScenario.uninfected[64].nic.phy80211p busyTime 8.1015873015873e-005
scalar TestScenario.uninfected[64].nic.mac1609_4 ReceivedUnicastPackets 0
scalar TestScenario.uninfected[64].nic.mac1609_4 ReceivedBroadcasts 22
scalar TestScenario.uninfected[64].nic.mac1609_4 SentPackets 1
scalar TestScenario.uninfected[64].nic.mac1609_4 SentAcknowledgements 0
scalar TestScenario.uninfected[64].nic.mac1609_4 SNIRLostPackets 0
scalar TestScenario.uninfected[64].nic.mac1609_4 RXTXLostPackets 0
scalar TestScenario.uninfected[64].nic.mac1609_4 TotalLostPackets 0
scalar TestScenario.uninfected[64].nic.mac1609_4 DroppedPacketsInMac 0
scalar TestScenario.uninfected[64].nic.mac1609_4 TooLittleTime 0
scalar TestScenario.uninfected[64].nic.mac1609_4 TimesIntoBackoff 1
scalar TestScenario.uninfected[64].nic.mac1609_4 SlotsBackoff 3
scalar TestScenario.uninfected[64].nic.mac1609_4 NumInternalContention 0
scalar TestScenario.uninfected[64].nic.mac1609_4 totalBusyTime 0.005337
scalar TestScenario.uninfected[64].veinsmobility startTime 65
scalar TestScenario.uninfected[64].veinsmobility totalTime 62
scalar TestScenario.uninfected[64].veinsmobility stopTime 128
scalar TestScenario.uninfected[64].veinsmobility minSpeed 3.3549341600398
scalar TestScenario.uninfected[64].veinsmobility maxSpeed 13.887849385543
scalar TestScenario.uninfected[64].veinsmobility totalDistance 776.02529545526
scalar TestScenario.uninfected[64].veinsmobility totalCO2Emission 146.13648052264
scalar TestScenario.uninfected[45].appl generatedWSMs 1
scalar TestScenario.uninfected[45].appl receivedWSMs 26
scalar TestScenario.uninfected[45].appl generatedBSMs 0
scalar TestScenario.uninfected[45].appl receivedBSMs 0
scalar TestScenario.uninfected[45].appl generatedWSAs 0
scalar TestScenario.uninfected[45].appl receivedWSAs 0
scalar TestScenario.uninfected[45].nic.phy80211p busyTime 7.2674698795181e-005
scalar TestScenario.uninfected[45].nic.mac1609_4 ReceivedUnicastPackets 0
scalar TestScenario.uninfected[45].nic.mac1609_4 ReceivedBroadcasts 26
scalar TestScenario.uninfected[45].nic.mac1609_4 SentPackets 1
scalar TestScenario.uninfected[45].nic.mac1609_4 SentAcknowledgements 0
scalar TestScenario.uninfected[45].nic.mac1609_4 SNIRLostPackets 0
scalar TestScenario.uninfected[45].nic.mac1609_4 RXTXLostPackets 0
scalar TestScenario.uninfected[45].nic.mac1609_4 TotalLostPackets 0
scalar TestScenario.uninfected[45].nic.mac1609_4 DroppedPacketsInMac 0
scalar TestScenario.uninfected[45].nic.mac1609_4 TooLittleTime 0
scalar TestScenario.uninfected[45].nic.mac1609_4 TimesIntoBackoff 1
scalar TestScenario.uninfected[45].nic.mac1609_4 SlotsBackoff 3
scalar TestScenario.uninfected[45].nic.mac1609_4 NumInternalContention 0
scalar TestScenario.uninfected[45].nic.mac1609_4 totalBusyTime 0.006265
scalar TestScenario.uninfected[45].veinsmobility startTime 46
scalar TestScenario.uninfected[45].veinsmobility totalTime 82
scalar TestScenario.uninfected[45].veinsmobility stopTime 129
scalar TestScenario.uninfected[45].veinsmobility minSpeed 3.4920281707563
scalar TestScenario.uninfected[45].veinsmobility maxSpeed 13.888483729323
scalar TestScenario.uninfected[45].veinsmobility totalDistance 966.65827275512
scalar TestScenario.uninfected[45].veinsmobility totalCO2Emission 236.64490921391
scalar TestScenario.uninfected[38].appl generatedWSMs 1
scalar TestScenario.uninfected[38].appl receivedWSMs 38
scalar TestScenario.uninfected[38].appl generatedBSMs 0
scalar TestScenario.uninfected[38].appl receivedBSMs 0
scalar TestScenario.uninfected[38].appl generatedWSAs 0
scalar TestScenario.uninfected[38].appl receivedWSAs 0
scalar TestScenario.uninfected[38].nic.phy80211p busyTime 9.7955555555555e-005
scalar TestScenario.uninfected[38].nic.mac1609_4 ReceivedUnicastPackets 0
scalar TestScenario.uninfected[38].nic.mac1609_4 ReceivedBroadcasts 38
scalar TestScenario.uninfected[38].nic.mac1609_4 SentPackets 1
scalar TestScenario.uninfected[38].nic.mac1609_4 SentAcknowledgements 0
scalar TestScenario.uninfected[38].nic.mac1609_4 SNIRLostPackets 0
scalar TestScenario.uninfected[38].nic.mac1609_4 RXTXLostPackets 0
scalar TestScenario.uninfected[38].nic.mac1609_4 TotalLostPackets 0
scalar TestScenario.uninfected[38].nic.mac1609_4 DroppedPacketsInMac 0
scalar TestScenario.uninfected[38].nic.mac1609_4 TooLittleTime 0
scalar TestScenario.uninfected[38].nic.mac1609_4 TimesIntoBackoff 1
scalar TestScenario.uninfected[38].nic.mac1609_4 SlotsBackoff 0
scalar TestScenario.uninfected[38].nic.mac1609_4 NumInternalContention 0
scalar TestScenario.uninfected[38].nic.mac1609_4 totalBusyTime 0.009049
scalar TestScenario.uninfected[38].veinsmobility startTime 39
scalar TestScenario.uninfected[38].veinsmobility totalTime 89
scalar TestScenario.uninfected[38].veinsmobility stopTime 129
scalar TestScenario.uninfected[38].veinsmobility minSpeed 3.2211357222074
scalar TestScenario.uninfected[38].veinsmobility maxSpeed 13.886040555977
scalar TestScenario.uninfected[38].veinsmobility totalDistance 963.25739447251
scalar TestScenario.uninfected[38].veinsmobility totalCO2Emission 259.82200819179
scalar TestScenario.uninfected[43].appl generatedWSMs 1
scalar TestScenario.uninfected[43].appl receivedWSMs 9
scalar TestScenario.uninfected[43].appl generatedBSMs 0
scalar TestScenario.uninfected[43].appl receivedBSMs 0
scalar TestScenario.uninfected[43].appl generatedWSAs 0
scalar TestScenario.uninfected[43].appl receivedWSAs 0
scalar TestScenario.uninfected[43].nic.phy80211p busyTime 2.4e-005
scalar TestScenario.uninfected[43].nic.mac1609_4 ReceivedUnicastPackets 0
scalar TestScenario.uninfected[43].nic.mac1609_4 ReceivedBroadcasts 9
scalar TestScenario.uninfected[43].nic.mac1609_4 SentPackets 1
scalar TestScenario.uninfected[43].nic.mac1609_4 SentAcknowledgements 0
scalar TestScenario.uninfected[43].nic.mac1609_4 SNIRLostPackets 0
scalar TestScenario.uninfected[43].nic.mac1609_4 RXTXLostPackets 0
scalar TestScenario.uninfected[43].nic.mac1609_4 TotalLostPackets 0
scalar TestScenario.uninfected[43].nic.mac1609_4 DroppedPacketsInMac 0
scalar TestScenario.uninfected[43].nic.mac1609_4 TooLittleTime 0
scalar TestScenario.uninfected[43].nic.mac1609_4 TimesIntoBackoff 1
scalar TestScenario.uninfected[43].nic.mac1609_4 SlotsBackoff 0
scalar TestScenario.uninfected[43].nic.mac1609_4 NumInternalContention 0
scalar TestScenario.uninfected[43].nic.mac1609_4 totalBusyTime 0.002321
scalar TestScenario.uninfected[43].veinsmobility startTime 44
scalar TestScenario.uninfected[43].veinsmobility totalTime 86
scalar TestScenario.uninfected[43].veinsmobility stopTime 131
scalar TestScenario.uninfected[43].veinsmobility minSpeed 3.5871321729617
scalar TestScenario.uninfected[43].veinsmobility maxSpeed 13.889845001712
scalar TestScenario.uninfected[43].veinsmobility totalDistance 955.35351133432
scalar TestScenario.uninfected[43].veinsmobility totalCO2Emission 258.96458328703
scalar TestScenario.uninfected[48].appl generatedWSMs 1
scalar TestScenario.uninfected[48].appl receivedWSMs 43
scalar TestScenario.uninfected[48].appl generatedBSMs 0
scalar TestScenario.uninfected[48].appl receivedBSMs 0
scalar TestScenario.uninfected[48].appl generatedWSAs 0
scalar TestScenario.uninfected[48].appl receivedWSAs 0
scalar TestScenario.uninfected[48].nic.phy80211p busyTime 0.0001187619047619
scalar TestScenario.uninfected[48].nic.mac1609_4 ReceivedUnicastPackets 0
scalar TestScenario.uninfected[48].nic.mac1609_4 ReceivedBroadcasts 43
scalar TestScenario.uninfected[48].nic.mac1609_4 SentPackets 1
scalar TestScenario.uninfected[48].nic.mac1609_4 SentAcknowledgements 0
scalar TestScenario.uninfected[48].nic.mac1609_4 SNIRLostPackets 0
scalar TestScenario.uninfected[48].nic.mac1609_4 RXTXLostPackets 0
scalar TestScenario.uninfected[48].nic.mac1609_4 TotalLostPackets 0
scalar TestScenario.uninfected[48].nic.mac1609_4 DroppedPacketsInMac 0
scalar TestScenario.uninfected[48].nic.mac1609_4 TooLittleTime 0
scalar TestScenario.uninfected[48].nic.mac1609_4 TimesIntoBackoff 1
scalar TestScenario.uninfected[48].nic.mac1609_4 SlotsBackoff 2
scalar TestScenario.uninfected[48].nic.mac1609_4 NumInternalContention 0
scalar TestScenario.uninfected[48].nic.mac1609_4 totalBusyTime 0.010209
scalar TestScenario.uninfected[48].veinsmobility startTime 49
scalar TestScenario.uninfected[48].veinsmobility totalTime 83
scalar TestScenario.uninfected[48].veinsmobility stopTime 133
scalar TestScenario.uninfected[48].veinsmobility minSpeed 4.5555750179925e-014
scalar TestScenario.uninfected[48].veinsmobility maxSpeed 13.885623021219
scalar TestScenario.uninfected[48].veinsmobility totalDistance 761.46153145645
scalar TestScenario.uninfected[48].veinsmobility totalCO2Emission 226.57194294633
scalar TestScenario.uninfected[25].appl generatedWSMs 1
scalar TestScenario.uninfected[25].appl receivedWSMs 34
scalar TestScenario.uninfected[25].appl generatedBSMs 0
scalar TestScenario.uninfected[25].appl receivedBSMs 0
scalar TestScenario.uninfected[25].appl generatedWSAs 0
scalar TestScenario.uninfected[25].appl receivedWSAs 0
scalar TestScenario.uninfected[25].nic.phy80211p busyTime 7.1709090909091e-005
scalar TestScenario.uninfected[25].nic.mac1609_4 ReceivedUnicastPackets 0
scalar TestScenario.uninfected[25].nic.mac1609_4 ReceivedBroadcasts 34
scalar TestScenario.uninfected[25].nic.mac1609_4 SentPackets 1
scalar TestScenario.uninfected[25].nic.mac1609_4 SentAcknowledgements 0
scalar TestScenario.uninfected[25].nic.mac1609_4 SNIRLostPackets 0
scalar TestScenario.uninfected[25].nic.mac1609_4 RXTXLostPackets 0
scalar TestScenario.uninfected[25].nic.mac1609_4 TotalLostPackets 0
scalar TestScenario.uninfected[25].nic.mac1609_4 DroppedPacketsInMac 0
scalar TestScenario.uninfected[25].nic.mac1609_4 TooLittleTime 0
scalar TestScenario.uninfected[25].nic.mac1609_4 TimesIntoBackoff 1
scalar TestScenario.uninfected[25].nic.mac1609_4 SlotsBackoff 3
scalar TestScenario.uninfected[25].nic.mac1609_4 NumInternalContention 0
scalar TestScenario.uninfected[25].nic.mac1609_4 totalBusyTime 0.008121
scalar TestScenario.uninfected[25].veinsmobility startTime 26
scalar TestScenario.uninfected[25].veinsmobility totalTime 109
scalar TestScenario.uninfected[25].veinsmobility stopTime 136
scalar TestScenario.uninfected[25].veinsmobility minSpeed 3.8817818003288
scalar TestScenario.uninfected[25].veinsmobility maxSpeed 13.889670290884
scalar TestScenario.uninfected[25].veinsmobility totalDistance 1356.1355461202
scalar TestScenario.uninfected[25].veinsmobility totalCO2Emission 292.69520996373
scalar TestScenario.uninfected[6].appl generatedWSMs 1
scalar TestScenario.uninfected[6].appl receivedWSMs 44
scalar TestScenario.uninfected[6].appl generatedBSMs 0
scalar TestScenario.uninfected[6].appl receivedBSMs 0
scalar TestScenario.uninfected[6].appl generatedWSAs 0
scalar TestScenario.uninfected[6].appl receivedWSAs 0
scalar TestScenario.uninfected[6].nic.phy80211p busyTime 7.8523076923077e-005
scalar TestScenario.uninfected[6].nic.mac1609_4 ReceivedUnicastPackets 0
scalar TestScenario.uninfected[6].nic.mac1609_4 ReceivedBroadcasts 44
scalar TestScenario.uninfected[6].nic.mac1609_4 SentPackets 1
scalar TestScenario.uninfected[6].nic.mac1609_4 SentAcknowledgements 0
scalar TestScenario.uninfected[6].nic.mac1609_4 SNIRLostPackets 0
scalar TestScenario.uninfected[6].nic.mac1609_4 RXTXLostPackets 0
scalar TestScenario.uninfected[6].nic.mac1609_4 TotalLostPackets 0
scalar TestScenario.uninfected[6].nic.mac1609_4 DroppedPacketsInMac 0
scalar TestScenario.uninfected[6].nic.mac1609_4 TooLittleTime 0
scalar TestScenario.uninfected[6].nic.mac1609_4 TimesIntoBackoff 1
scalar TestScenario.uninfected[6].nic.mac1609_4 SlotsBackoff 1
scalar TestScenario.uninfected[6].nic.mac1609_4 NumInternalContention 0
scalar TestScenario.uninfected[6].nic.mac1609_4 totalBusyTime 0.010441
scalar TestScenario.uninfected[6].veinsmobility startTime 7
scalar TestScenario.uninfected[6].veinsmobility totalTime 129
scalar TestScenario.uninfected[6].veinsmobility stopTime 137
scalar TestScenario.uninfected[6].veinsmobility minSpeed 0
scalar TestScenario.uninfected[6].veinsmobility maxSpeed 13.885804472454
scalar TestScenario.uninfected[6].veinsmobility totalDistance 1378.0096470738
scalar TestScenario.uninfected[6].veinsmobility totalCO2Emission 352.94944261505
scalar TestScenario.uninfected[54].appl generatedWSMs 1
scalar TestScenario.uninfected[54].appl receivedWSMs 26
scalar TestScenario.uninfected[54].appl generatedBSMs 0
scalar TestScenario.uninfected[54].appl receivedBSMs 0
scalar TestScenario.uninfected[54].appl generatedWSAs 0
scalar TestScenario.uninfected[54].appl receivedWSAs 0
scalar TestScenario.uninfected[54].nic.phy80211p busyTime 8.12e-005
scalar TestScenario.uninfected[54].nic.mac1609_4 ReceivedUnicastPackets 0
scalar TestScenario.uninfected[54].nic.mac1609_4 ReceivedBroadcasts 26
scalar TestScenario.uninfected[54].nic.mac1609_4 SentPackets 1
scalar TestScenario.uninfected[54].nic.mac1609_4 SentAcknowledgements 0
scalar TestScenario.uninfected[54].nic.mac1609_4 SNIRLostPackets 2
scalar TestScenario.uninfected[54].nic.mac1609_4 RXTXLostPackets 0
scalar TestScenario.uninfected[54].nic.mac1609_4 TotalLostPackets 2
scalar TestScenario.uninfected[54].nic.mac1609_4 DroppedPacketsInMac 0
scalar TestScenario.uninfected[54].nic.mac1609_4 TooLittleTime 0
scalar TestScenario.uninfected[54].nic.mac1609_4 TimesIntoBackoff 1
scalar TestScenario.uninfected[54].nic.mac1609_4 SlotsBackoff 1
scalar TestScenario.uninfected[54].nic.mac1609_4 NumInternalContention 0
scalar TestScenario.uninfected[54].nic.mac1609_4 totalBusyTime 0.006497
scalar TestScenario.uninfected[54].veinsmobility startTime 57
scalar TestScenario.uninfected[54].veinsmobility totalTime 79
scalar TestScenario.uninfected[54].veinsmobility stopTime 137
scalar TestScenario.uninfected[54].veinsmobility minSpeed 3.4738068019358
scalar TestScenario.uninfected[54].veinsmobility maxSpeed 13.888811328367
scalar TestScenario.uninfected[54].veinsmobility totalDistance 965.64010065602
scalar TestScenario.uninfected[54].veinsmobility totalCO2Emission 221.18622598921
scalar TestScenario.uninfected[85].appl generatedWSMs 1
scalar TestScenario.uninfected[85].appl receivedWSMs 19
scalar TestScenario.uninfected[85].appl generatedBSMs 0
scalar TestScenario.uninfected[85].appl receivedBSMs 0
scalar TestScenario.uninfected[85].appl generatedWSAs 0
scalar TestScenario.uninfected[85].appl receivedWSAs 0
scalar TestScenario.uninfected[85].nic.phy80211p busyTime 8.4769230769231e-005
scalar TestScenario.uninfected[85].nic.mac1609_4 ReceivedUnicastPackets 0
scalar TestScenario.uninfected[85].nic.mac1609_4 ReceivedBroadcasts 19
scalar TestScenario.uninfected[85].nic.mac1609_4 SentPackets 1
scalar TestScenario.uninfected[85].nic.mac1609_4 SentAcknowledgements 0
scalar TestScenario.uninfected[85].nic.mac1609_4 SNIRLostPackets 0
scalar TestScenario.uninfected[85].nic.mac1609_4 RXTXLostPackets 0
scalar TestScenario.uninfected[85].nic.mac1609_4 TotalLostPackets 0
scalar TestScenario.uninfected[85].nic.mac1609_4 DroppedPacketsInMac 0
scalar TestScenario.uninfected[85].nic.mac1609_4 TooLittleTime 0
scalar TestScenario.uninfected[85].nic.mac1609_4 TimesIntoBackoff 1
scalar TestScenario.uninfected[85].nic.mac1609_4 SlotsBackoff 1
scalar TestScenario.uninfected[85].nic.mac1609_4 NumInternalContention 0
scalar TestScenario.uninfected[85].nic.mac1609_4 totalBusyTime 0.004641
scalar TestScenario.uninfected[85].veinsmobility startTime 87
scalar TestScenario.uninfected[85].veinsmobility totalTime 51
scalar TestScenario.uninfected[85].veinsmobility stopTime 139
scalar TestScenario.uninfected[85].veinsmobility minSpeed 3.4785210944363
scalar TestScenario.uninfected[85].veinsmobility maxSpeed 13.886311242494
scalar TestScenario.uninfected[85].veinsmobility totalDistance 568.52835171728
scalar TestScenario.uninfected[85].veinsmobility totalCO2Emission 156.18503693022
scalar TestScenario.uninfected[46].appl generatedWSMs 1
scalar TestScenario.uninfected[46].appl receivedWSMs 35
scalar TestScenario.uninfected[46].appl generatedBSMs 0
scalar TestScenario.uninfected[46].appl receivedBSMs 0
scalar TestScenario.uninfected[46].appl generatedWSAs 0
scalar TestScenario.uninfected[46].appl receivedWSAs 0
scalar TestScenario.uninfected[46].nic.phy80211p busyTime 8.8260869565217e-005
scalar TestScenario.uninfected[46].nic.mac1609_4 ReceivedUnicastPackets 0
scalar TestScenario.uninfected[46].nic.mac1609_4 ReceivedBroadcasts 35
scalar TestScenario.uninfected[46].nic.mac1609_4 SentPackets 1
scalar TestScenario.uninfected[46].nic.mac1609_4 SentAcknowledgements 0
scalar TestScenario.uninfected[46].nic.mac1609_4 SNIRLostPackets 0
scalar TestScenario.uninfected[46].nic.mac1609_4 RXTXLostPackets 0
scalar TestScenario.uninfected[46].nic.mac1609_4 TotalLostPackets 0
scalar TestScenario.uninfected[46].nic.mac1609_4 DroppedPacketsInMac 0
scalar TestScenario.uninfected[46].nic.mac1609_4 TooLittleTime 0
scalar TestScenario.uninfected[46].nic.mac1609_4 TimesIntoBackoff 1
scalar TestScenario.uninfected[46].nic.mac1609_4 SlotsBackoff 1
scalar TestScenario.uninfected[46].nic.mac1609_4 NumInternalContention 0
scalar TestScenario.uninfected[46].nic.mac1609_4 totalBusyTime 0.008353
scalar TestScenario.uninfected[46].veinsmobility startTime 47
scalar TestScenario.uninfected[46].veinsmobility totalTime 91
scalar TestScenario.uninfected[46].veinsmobility stopTime 139
scalar TestScenario.uninfected[46].veinsmobility minSpeed 4.0801163163845
scalar TestScenario.uninfected[46].veinsmobility maxSpeed 13.888866231341
scalar TestScenario.uninfected[46].veinsmobility totalDistance 1167.5781047014
scalar TestScenario.uninfected[46].veinsmobility totalCO2Emission 225.93698835936
scalar TestScenario.uninfected[31].appl generatedWSMs 1
scalar TestScenario.uninfected[31].appl receivedWSMs 37
scalar TestScenario.uninfected[31].appl generatedBSMs 0
scalar TestScenario.uninfected[31].appl receivedBSMs 0
scalar TestScenario.uninfected[31].appl generatedWSAs 0
scalar TestScenario.uninfected[31].appl receivedWSAs 0
scalar TestScenario.uninfected[31].nic.phy80211p busyTime 7.8752293577982e-005
scalar TestScenario.uninfected[31].nic.mac1609_4 ReceivedUnicastPackets 0
scalar TestScenario.uninfected[31].nic.mac1609_4 ReceivedBroadcasts 37
scalar TestScenario.uninfected[31].nic.mac1609_4 SentPackets 1
scalar TestScenario.uninfected[31].nic.mac1609_4 SentAcknowledgements 0
scalar TestScenario.uninfected[31].nic.mac1609_4 SNIRLostPackets 0
scalar TestScenario.uninfected[31].nic.mac1609_4 RXTXLostPackets 0
scalar TestScenario.uninfected[31].nic.mac1609_4 TotalLostPackets 0
scalar TestScenario.uninfected[31].nic.mac1609_4 DroppedPacketsInMac 0
scalar TestScenario.uninfected[31].nic.mac1609_4 TooLittleTime 0
scalar TestScenario.uninfected[31].nic.mac1609_4 TimesIntoBackoff 1
scalar TestScenario.uninfected[31].nic.mac1609_4 SlotsBackoff 2
scalar TestScenario.uninfected[31].nic.mac1609_4 NumInternalContention 0
scalar TestScenario.uninfected[31].nic.mac1609_4 totalBusyTime 0.008817
scalar TestScenario.uninfected[31].veinsmobility startTime 32
scalar TestScenario.uninfected[31].veinsmobility totalTime 108
scalar TestScenario.uninfected[31].veinsmobility stopTime 141
scalar TestScenario.uninfected[31].veinsmobility minSpeed 3.157953561468e-012
scalar TestScenario.uninfected[31].veinsmobility maxSpeed 13.885422304594
scalar TestScenario.uninfected[31].veinsmobility totalDistance 1162.9827989495
scalar TestScenario.uninfected[31].veinsmobility totalCO2Emission 299.39226684421
scalar TestScenario.uninfected[32].appl generatedWSMs 1
scalar TestScenario.uninfected[32].appl receivedWSMs 56
scalar TestScenario.uninfected[32].appl generatedBSMs 0
scalar TestScenario.uninfected[32].appl receivedBSMs 0
scalar TestScenario.uninfected[32].appl generatedWSAs 0
scalar TestScenario.uninfected[32].appl receivedWSAs 0
scalar TestScenario.uninfected[32].nic.phy80211p busyTime 0.0001202962962963
scalar TestScenario.uninfected[32].nic.mac1609_4 ReceivedUnicastPackets 0
scalar TestScenario.uninfected[32].nic.mac1609_4 ReceivedBroadcasts 56
scalar TestScenario.uninfected[32].nic.mac1609_4 SentPackets 1
scalar TestScenario.uninfected[32].nic.mac1609_4 SentAcknowledgements 0
scalar TestScenario.uninfected[32].nic.mac1609_4 SNIRLostPackets 0
scalar TestScenario.uninfected[32].nic.mac1609_4 RXTXLostPackets 0
scalar TestScenario.uninfected[32].nic.mac1609_4 TotalLostPackets 0
scalar TestScenario.uninfected[32].nic.mac1609_4 DroppedPacketsInMac 0
scalar TestScenario.uninfected[32].nic.mac1609_4 TooLittleTime 0
scalar TestScenario.uninfected[32].nic.mac1609_4 TimesIntoBackoff 1
scalar TestScenario.uninfected[32].nic.mac1609_4 SlotsBackoff 0
[...]
scalar TestScenario.uninfected[242].nic.phy80211p busyTime 4.64e-005
scalar TestScenario.uninfected[242].nic.mac1609_4 ReceivedUnicastPackets 0
scalar TestScenario.uninfected[242].nic.mac1609_4 ReceivedBroadcasts 18
scalar TestScenario.uninfected[242].nic.mac1609_4 SentPackets 1
scalar TestScenario.uninfected[242].nic.mac1609_4 SentAcknowledgements 0
scalar TestScenario.uninfected[242].nic.mac1609_4 SNIRLostPackets 0
scalar TestScenario.uninfected[242].nic.mac1609_4 RXTXLostPackets 0
scalar TestScenario.uninfected[242].nic.mac1609_4 TotalLostPackets 0
scalar TestScenario.uninfected[242].nic.mac1609_4 DroppedPacketsInMac 0
scalar TestScenario.uninfected[242].nic.mac1609_4 TooLittleTime 0
scalar TestScenario.uninfected[242].nic.mac1609_4 TimesIntoBackoff 1
scalar TestScenario.uninfected[242].nic.mac1609_4 SlotsBackoff 2
scalar TestScenario.uninfected[242].nic.mac1609_4 NumInternalContention 0
scalar TestScenario.uninfected[242].nic.mac1609_4 totalBusyTime 0.004409
scalar TestScenario.uninfected[242].veinsmobility startTime 246
scalar TestScenario.uninfected[242].veinsmobility totalTime 89
scalar TestScenario.uninfected[242].veinsmobility stopTime 336
scalar TestScenario.uninfected[242].veinsmobility minSpeed 1.2244032168841
scalar TestScenario.uninfected[242].veinsmobility maxSpeed 13.887876206639
scalar TestScenario.uninfected[242].veinsmobility totalDistance 971.25677932178
scalar TestScenario.uninfected[242].veinsmobility totalCO2Emission 267.84031361421
scalar TestScenario.uninfected[179].appl generatedWSMs 1
scalar TestScenario.uninfected[179].appl receivedWSMs 45
scalar TestScenario.uninfected[179].appl generatedBSMs 0
scalar TestScenario.uninfected[179].appl receivedBSMs 0
scalar TestScenario.uninfected[179].appl generatedWSAs 0
scalar TestScenario.uninfected[179].appl receivedWSAs 0
scalar TestScenario.uninfected[179].nic.phy80211p busyTime 6.7354838709677e-005
scalar TestScenario.uninfected[179].nic.mac1609_4 ReceivedUnicastPackets 0
scalar TestScenario.uninfected[179].nic.mac1609_4 ReceivedBroadcasts 45
scalar TestScenario.uninfected[179].nic.mac1609_4 SentPackets 1
scalar TestScenario.uninfected[179].nic.mac1609_4 SentAcknowledgements 0
scalar TestScenario.uninfected[179].nic.mac1609_4 SNIRLostPackets 0
scalar TestScenario.uninfected[179].nic.mac1609_4 RXTXLostPackets 0
scalar TestScenario.uninfected[179].nic.mac1609_4 TotalLostPackets 0
scalar TestScenario.uninfected[179].nic.mac1609_4 DroppedPacketsInMac 0
scalar TestScenario.uninfected[179].nic.mac1609_4 TooLittleTime 0
scalar TestScenario.uninfected[179].nic.mac1609_4 TimesIntoBackoff 1
scalar TestScenario.uninfected[179].nic.mac1609_4 SlotsBackoff 3
scalar TestScenario.uninfected[179].nic.mac1609_4 NumInternalContention 0
scalar TestScenario.uninfected[179].nic.mac1609_4 totalBusyTime 0.010673
scalar TestScenario.uninfected[179].veinsmobility startTime 182
scalar TestScenario.uninfected[179].veinsmobility totalTime 154
scalar TestScenario.uninfected[179].veinsmobility stopTime 337
scalar TestScenario.uninfected[179].veinsmobility minSpeed 0
scalar TestScenario.uninfected[179].veinsmobility maxSpeed 13.889824170801
scalar TestScenario.uninfected[179].veinsmobility totalDistance 1172.7681337874
scalar TestScenario.uninfected[179].veinsmobility totalCO2Emission 369.65980017606
scalar TestScenario.exploited[301].appl generatedWSMs 1
scalar TestScenario.exploited[301].appl receivedWSMs 6
scalar TestScenario.exploited[301].appl generatedBSMs 0
scalar TestScenario.exploited[301].appl receivedBSMs 0
scalar TestScenario.exploited[301].appl generatedWSAs 0
scalar TestScenario.exploited[301].appl receivedWSAs 0
scalar TestScenario.exploited[301].nic.phy80211p busyTime 3.9771428571429e-005
scalar TestScenario.exploited[301].nic.mac1609_4 ReceivedUnicastPackets 0
scalar TestScenario.exploited[301].nic.mac1609_4 ReceivedBroadcasts 6
scalar TestScenario.exploited[301].nic.mac1609_4 SentPackets 1
scalar TestScenario.exploited[301].nic.mac1609_4 SentAcknowledgements 0
scalar TestScenario.exploited[301].nic.mac1609_4 SNIRLostPackets 0
scalar TestScenario.exploited[301].nic.mac1609_4 RXTXLostPackets 0
scalar TestScenario.exploited[301].nic.mac1609_4 TotalLostPackets 0
scalar TestScenario.exploited[301].nic.mac1609_4 DroppedPacketsInMac 0
scalar TestScenario.exploited[301].nic.mac1609_4 TooLittleTime 0
scalar TestScenario.exploited[301].nic.mac1609_4 TimesIntoBackoff 1
scalar TestScenario.exploited[301].nic.mac1609_4 SlotsBackoff 2
scalar TestScenario.exploited[301].nic.mac1609_4 NumInternalContention 0
scalar TestScenario.exploited[301].nic.mac1609_4 totalBusyTime 0.001625
scalar TestScenario.exploited[301].veinsmobility startTime 302
scalar TestScenario.exploited[301].veinsmobility totalTime 34
scalar TestScenario.exploited[301].veinsmobility stopTime 337
scalar TestScenario.exploited[301].veinsmobility minSpeed 3.5243375525833
scalar TestScenario.exploited[301].veinsmobility maxSpeed 13.868673090956
scalar TestScenario.exploited[301].veinsmobility totalDistance 363.51208233439
scalar TestScenario.exploited[301].veinsmobility totalCO2Emission 104.08877776896
scalar TestScenario.uninfected[289].appl generatedWSMs 1
scalar TestScenario.uninfected[289].appl receivedWSMs 11
scalar TestScenario.uninfected[289].appl generatedBSMs 0
scalar TestScenario.uninfected[289].appl receivedBSMs 0
scalar TestScenario.uninfected[289].appl generatedWSAs 0
scalar TestScenario.uninfected[289].appl receivedWSAs 0
scalar TestScenario.uninfected[289].nic.phy80211p busyTime 5.3166666666667e-005
scalar TestScenario.uninfected[289].nic.mac1609_4 ReceivedUnicastPackets 0
scalar TestScenario.uninfected[289].nic.mac1609_4 ReceivedBroadcasts 11
scalar TestScenario.uninfected[289].nic.mac1609_4 SentPackets 1
scalar TestScenario.uninfected[289].nic.mac1609_4 SentAcknowledgements 0
scalar TestScenario.uninfected[289].nic.mac1609_4 SNIRLostPackets 0
scalar TestScenario.uninfected[289].nic.mac1609_4 RXTXLostPackets 0
scalar TestScenario.uninfected[289].nic.mac1609_4 TotalLostPackets 0
scalar TestScenario.uninfected[289].nic.mac1609_4 DroppedPacketsInMac 0
scalar TestScenario.uninfected[289].nic.mac1609_4 TooLittleTime 0
scalar TestScenario.uninfected[289].nic.mac1609_4 TimesIntoBackoff 1
scalar TestScenario.uninfected[289].nic.mac1609_4 SlotsBackoff 1
scalar TestScenario.uninfected[289].nic.mac1609_4 NumInternalContention 0
scalar TestScenario.uninfected[289].nic.mac1609_4 totalBusyTime 0.002785
scalar TestScenario.uninfected[289].veinsmobility startTime 290
scalar TestScenario.uninfected[289].veinsmobility totalTime 47
scalar TestScenario.uninfected[289].veinsmobility stopTime 338
scalar TestScenario.uninfected[289].veinsmobility minSpeed 4.5522939774631e-014
scalar TestScenario.uninfected[289].veinsmobility maxSpeed 13.882074651434
scalar TestScenario.uninfected[289].veinsmobility totalDistance 356.04046185665
scalar TestScenario.uninfected[289].veinsmobility totalCO2Emission 122.02354726199
scalar TestScenario.uninfected[232].appl generatedWSMs 1
scalar TestScenario.uninfected[232].appl receivedWSMs 21
scalar TestScenario.uninfected[232].appl generatedBSMs 0
scalar TestScenario.uninfected[232].appl receivedBSMs 0
scalar TestScenario.uninfected[232].appl generatedWSAs 0
scalar TestScenario.uninfected[232].appl receivedWSAs 0
scalar TestScenario.uninfected[232].nic.phy80211p busyTime 4.64e-005
scalar TestScenario.uninfected[232].nic.mac1609_4 ReceivedUnicastPackets 0
scalar TestScenario.uninfected[232].nic.mac1609_4 ReceivedBroadcasts 21
scalar TestScenario.uninfected[232].nic.mac1609_4 SentPackets 1
scalar TestScenario.uninfected[232].nic.mac1609_4 SentAcknowledgements 0
scalar TestScenario.uninfected[232].nic.mac1609_4 SNIRLostPackets 0
scalar TestScenario.uninfected[232].nic.mac1609_4 RXTXLostPackets 0
scalar TestScenario.uninfected[232].nic.mac1609_4 TotalLostPackets 0
scalar TestScenario.uninfected[232].nic.mac1609_4 DroppedPacketsInMac 0
scalar TestScenario.uninfected[232].nic.mac1609_4 TooLittleTime 0
scalar TestScenario.uninfected[232].nic.mac1609_4 TimesIntoBackoff 1
scalar TestScenario.uninfected[232].nic.mac1609_4 SlotsBackoff 0
scalar TestScenario.uninfected[232].nic.mac1609_4 NumInternalContention 0
scalar TestScenario.uninfected[232].nic.mac1609_4 totalBusyTime 0.005105
scalar TestScenario.uninfected[232].veinsmobility startTime 234
scalar TestScenario.uninfected[232].veinsmobility totalTime 104
scalar TestScenario.uninfected[232].veinsmobility stopTime 339
scalar TestScenario.uninfected[232].veinsmobility minSpeed 3.2131330828061e-015
scalar TestScenario.uninfected[232].veinsmobility maxSpeed 13.889074413595
scalar TestScenario.uninfected[232].veinsmobility totalDistance 975.39881898703
scalar TestScenario.uninfected[232].veinsmobility totalCO2Emission 248.03036114913
scalar TestScenario.uninfected[303].appl generatedWSMs 1
scalar TestScenario.uninfected[303].appl receivedWSMs 9
scalar TestScenario.uninfected[303].appl generatedBSMs 0
scalar TestScenario.uninfected[303].appl receivedBSMs 0
scalar TestScenario.uninfected[303].appl generatedWSAs 0
scalar TestScenario.uninfected[303].appl receivedWSAs 0
scalar TestScenario.uninfected[303].nic.phy80211p busyTime 6.1411764705882e-005
scalar TestScenario.uninfected[303].nic.mac1609_4 ReceivedUnicastPackets 0
scalar TestScenario.uninfected[303].nic.mac1609_4 ReceivedBroadcasts 9
scalar TestScenario.uninfected[303].nic.mac1609_4 SentPackets 1
scalar TestScenario.uninfected[303].nic.mac1609_4 SentAcknowledgements 0
scalar TestScenario.uninfected[303].nic.mac1609_4 SNIRLostPackets 0
scalar TestScenario.uninfected[303].nic.mac1609_4 RXTXLostPackets 0
scalar TestScenario.uninfected[303].nic.mac1609_4 TotalLostPackets 0
scalar TestScenario.uninfected[303].nic.mac1609_4 DroppedPacketsInMac 0
scalar TestScenario.uninfected[303].nic.mac1609_4 TooLittleTime 0
scalar TestScenario.uninfected[303].nic.mac1609_4 TimesIntoBackoff 1
scalar TestScenario.uninfected[303].nic.mac1609_4 SlotsBackoff 0
scalar TestScenario.uninfected[303].nic.mac1609_4 NumInternalContention 0
scalar TestScenario.uninfected[303].nic.mac1609_4 totalBusyTime 0.002321
scalar TestScenario.uninfected[303].veinsmobility startTime 305
scalar TestScenario.uninfected[303].veinsmobility totalTime 33
scalar TestScenario.uninfected[303].veinsmobility stopTime 339
scalar TestScenario.uninfected[303].veinsmobility minSpeed 3.1342285443026
scalar TestScenario.uninfected[303].veinsmobility maxSpeed 13.883737439038
scalar TestScenario.uninfected[303].veinsmobility totalDistance 368.0115879256
scalar TestScenario.uninfected[303].veinsmobility totalCO2Emission 103.13933529145
scalar TestScenario.uninfected[261].appl generatedWSMs 1
scalar TestScenario.uninfected[261].appl receivedWSMs 15
scalar TestScenario.uninfected[261].appl generatedBSMs 0
scalar TestScenario.uninfected[261].appl receivedBSMs 0
scalar TestScenario.uninfected[261].appl generatedWSAs 0
scalar TestScenario.uninfected[261].appl receivedWSAs 0
scalar TestScenario.uninfected[261].nic.phy80211p busyTime 4.5194805194805e-005
scalar TestScenario.uninfected[261].nic.mac1609_4 ReceivedUnicastPackets 0
scalar TestScenario.uninfected[261].nic.mac1609_4 ReceivedBroadcasts 15
scalar TestScenario.uninfected[261].nic.mac1609_4 SentPackets 1
scalar TestScenario.uninfected[261].nic.mac1609_4 SentAcknowledgements 0
scalar TestScenario.uninfected[261].nic.mac1609_4 SNIRLostPackets 0
scalar TestScenario.uninfected[261].nic.mac1609_4 RXTXLostPackets 0
scalar TestScenario.uninfected[261].nic.mac1609_4 TotalLostPackets 0
scalar TestScenario.uninfected[261].nic.mac1609_4 DroppedPacketsInMac 0
scalar TestScenario.uninfected[261].nic.mac1609_4 TooLittleTime 0
scalar TestScenario.uninfected[261].nic.mac1609_4 TimesIntoBackoff 1
scalar TestScenario.uninfected[261].nic.mac1609_4 SlotsBackoff 3
scalar TestScenario.uninfected[261].nic.mac1609_4 NumInternalContention 0
scalar TestScenario.uninfected[261].nic.mac1609_4 totalBusyTime 0.003713
scalar TestScenario.uninfected[261].veinsmobility startTime 263
scalar TestScenario.uninfected[261].veinsmobility totalTime 76
scalar TestScenario.uninfected[261].veinsmobility stopTime 340
scalar TestScenario.uninfected[261].veinsmobility minSpeed 3.7736813441506
scalar TestScenario.uninfected[261].veinsmobility maxSpeed 13.889163062344
scalar TestScenario.uninfected[261].veinsmobility totalDistance 978.0173391262
scalar TestScenario.uninfected[261].veinsmobility totalCO2Emission 188.22280325581
scalar TestScenario.uninfected[258].appl generatedWSMs 1
scalar TestScenario.uninfected[258].appl receivedWSMs 25
scalar TestScenario.uninfected[258].appl generatedBSMs 0
scalar TestScenario.uninfected[258].appl receivedBSMs 0
scalar TestScenario.uninfected[258].appl generatedWSAs 0
scalar TestScenario.uninfected[258].appl receivedWSAs 0
scalar TestScenario.uninfected[258].nic.phy80211p busyTime 7.25e-005
scalar TestScenario.uninfected[258].nic.mac1609_4 ReceivedUnicastPackets 0
scalar TestScenario.uninfected[258].nic.mac1609_4 ReceivedBroadcasts 25
scalar TestScenario.uninfected[258].nic.mac1609_4 SentPackets 1
scalar TestScenario.uninfected[258].nic.mac1609_4 SentAcknowledgements 0
scalar TestScenario.uninfected[258].nic.mac1609_4 SNIRLostPackets 0
scalar TestScenario.uninfected[258].nic.mac1609_4 RXTXLostPackets 0
scalar TestScenario.uninfected[258].nic.mac1609_4 TotalLostPackets 0
scalar TestScenario.uninfected[258].nic.mac1609_4 DroppedPacketsInMac 0
scalar TestScenario.uninfected[258].nic.mac1609_4 TooLittleTime 0
scalar TestScenario.uninfected[258].nic.mac1609_4 TimesIntoBackoff 1
scalar TestScenario.uninfected[258].nic.mac1609_4 SlotsBackoff 0
scalar TestScenario.uninfected[258].nic.mac1609_4 NumInternalContention 0
scalar TestScenario.uninfected[258].nic.mac1609_4 totalBusyTime 0.006033
scalar TestScenario.uninfected[258].veinsmobility startTime 261
scalar TestScenario.uninfected[258].veinsmobility totalTime 79
scalar TestScenario.uninfected[258].veinsmobility stopTime 341
scalar TestScenario.uninfected[258].veinsmobility minSpeed 0
scalar TestScenario.uninfected[258].veinsmobility maxSpeed 13.879265910946
scalar TestScenario.uninfected[258].veinsmobility totalDistance 755.76794960274
scalar TestScenario.uninfected[258].veinsmobility totalCO2Emission 220.31185782452
scalar TestScenario.uninfected[325].appl generatedWSMs 0
scalar TestScenario.uninfected[325].appl receivedWSMs 0
scalar TestScenario.uninfected[325].appl generatedBSMs 0
scalar TestScenario.uninfected[325].appl receivedBSMs 0
scalar TestScenario.uninfected[325].appl generatedWSAs 0
scalar TestScenario.uninfected[325].appl receivedWSAs 0
scalar TestScenario.uninfected[325].nic.phy80211p busyTime 0
scalar TestScenario.uninfected[325].nic.mac1609_4 ReceivedUnicastPackets 0
scalar TestScenario.uninfected[325].nic.mac1609_4 ReceivedBroadcasts 0
scalar TestScenario.uninfected[325].nic.mac1609_4 SentPackets 0
scalar TestScenario.uninfected[325].nic.mac1609_4 SentAcknowledgements 0
scalar TestScenario.uninfected[325].nic.mac1609_4 SNIRLostPackets 0
scalar TestScenario.uninfected[325].nic.mac1609_4 RXTXLostPackets 0
scalar TestScenario.uninfected[325].nic.mac1609_4 TotalLostPackets 0
scalar TestScenario.uninfected[325].nic.mac1609_4 DroppedPacketsInMac 0
scalar TestScenario.uninfected[325].nic.mac1609_4 TooLittleTime 0
scalar TestScenario.uninfected[325].nic.mac1609_4 TimesIntoBackoff 0
scalar TestScenario.uninfected[325].nic.mac1609_4 SlotsBackoff 0
scalar TestScenario.uninfected[325].nic.mac1609_4 NumInternalContention 0
scalar TestScenario.uninfected[325].nic.mac1609_4 totalBusyTime 0
scalar TestScenario.uninfected[325].veinsmobility startTime 326
scalar TestScenario.uninfected[325].veinsmobility totalTime 15
scalar TestScenario.uninfected[325].veinsmobility stopTime 342
scalar TestScenario.uninfected[325].veinsmobility minSpeed 3.9943907623875
scalar TestScenario.uninfected[325].veinsmobility maxSpeed 13.883686906216
scalar TestScenario.uninfected[325].veinsmobility totalDistance 172.58637764163
scalar TestScenario.uninfected[325].veinsmobility totalCO2Emission 50.224957895746
scalar TestScenario.uninfected[228].appl generatedWSMs 1
scalar TestScenario.uninfected[228].appl receivedWSMs 23
scalar TestScenario.uninfected[228].appl generatedBSMs 0
scalar TestScenario.uninfected[228].appl receivedBSMs 0
scalar TestScenario.uninfected[228].appl generatedWSAs 0
scalar TestScenario.uninfected[228].appl receivedWSAs 0
scalar TestScenario.uninfected[228].nic.phy80211p busyTime 4.7642857142857e-005
scalar TestScenario.uninfected[228].nic.mac1609_4 ReceivedUnicastPackets 0
scalar TestScenario.uninfected[228].nic.mac1609_4 ReceivedBroadcasts 23
scalar TestScenario.uninfected[228].nic.mac1609_4 SentPackets 1
scalar TestScenario.uninfected[228].nic.mac1609_4 SentAcknowledgements 0
scalar TestScenario.uninfected[228].nic.mac1609_4 SNIRLostPackets 0
scalar TestScenario.uninfected[228].nic.mac1609_4 RXTXLostPackets 0
scalar TestScenario.uninfected[228].nic.mac1609_4 TotalLostPackets 0
scalar TestScenario.uninfected[228].nic.mac1609_4 DroppedPacketsInMac 0
scalar TestScenario.uninfected[228].nic.mac1609_4 TooLittleTime 0
scalar TestScenario.uninfected[228].nic.mac1609_4 TimesIntoBackoff 1
scalar TestScenario.uninfected[228].nic.mac1609_4 SlotsBackoff 1
scalar TestScenario.uninfected[228].nic.mac1609_4 NumInternalContention 0
scalar TestScenario.uninfected[228].nic.mac1609_4 totalBusyTime 0.005569
scalar TestScenario.uninfected[228].veinsmobility startTime 230
scalar TestScenario.uninfected[228].veinsmobility totalTime 111
scalar TestScenario.uninfected[228].veinsmobility stopTime 342
scalar TestScenario.uninfected[228].veinsmobility minSpeed 4.556353536903e-014
scalar TestScenario.uninfected[228].veinsmobility maxSpeed 13.88740433852
scalar TestScenario.uninfected[228].veinsmobility totalDistance 951.66529986186
scalar TestScenario.uninfected[228].veinsmobility totalCO2Emission 291.90764047993
scalar TestScenario.uninfected[142].appl generatedWSMs 1
scalar TestScenario.uninfected[142].appl receivedWSMs 57
scalar TestScenario.uninfected[142].appl generatedBSMs 0
scalar TestScenario.uninfected[142].appl receivedBSMs 0
scalar TestScenario.uninfected[142].appl generatedWSAs 0
scalar TestScenario.uninfected[142].appl receivedWSAs 0
scalar TestScenario.uninfected[142].nic.phy80211p busyTime 6.6452261306533e-005
scalar TestScenario.uninfected[142].nic.mac1609_4 ReceivedUnicastPackets 0
scalar TestScenario.uninfected[142].nic.mac1609_4 ReceivedBroadcasts 57
scalar TestScenario.uninfected[142].nic.mac1609_4 SentPackets 1
scalar TestScenario.uninfected[142].nic.mac1609_4 SentAcknowledgements 0
scalar TestScenario.uninfected[142].nic.mac1609_4 SNIRLostPackets 0
scalar TestScenario.uninfected[142].nic.mac1609_4 RXTXLostPackets 0
scalar TestScenario.uninfected[142].nic.mac1609_4 TotalLostPackets 0
scalar TestScenario.uninfected[142].nic.mac1609_4 DroppedPacketsInMac 0
scalar TestScenario.uninfected[142].nic.mac1609_4 TooLittleTime 0
scalar TestScenario.uninfected[142].nic.mac1609_4 TimesIntoBackoff 1
scalar TestScenario.uninfected[142].nic.mac1609_4 SlotsBackoff 2
scalar TestScenario.uninfected[142].nic.mac1609_4 NumInternalContention 0
scalar TestScenario.uninfected[142].nic.mac1609_4 totalBusyTime 0.013457
scalar TestScenario.uninfected[142].veinsmobility startTime 144
scalar TestScenario.uninfected[142].veinsmobility totalTime 198
scalar TestScenario.uninfected[142].veinsmobility stopTime 343
scalar TestScenario.uninfected[142].veinsmobility minSpeed 0
scalar TestScenario.uninfected[142].veinsmobility maxSpeed 13.888136603131
scalar TestScenario.uninfected[142].veinsmobility totalDistance 1552.1498052238
scalar TestScenario.uninfected[142].veinsmobility totalCO2Emission 477.518569418

