version 2
run Default-0-20200713-09:14:55-28308
attr configname Default
attr datetime 20200713-09:14:55
attr experiment Default
attr inifile omnetpp.ini
attr iterationvars ""
attr iterationvarsf ""
attr measurement ""
attr network sim1.src.TestScenario
attr processid 28308
attr repetition 0
attr replication #0
attr resultdir results
attr runnumber 0
attr seedset 0
param *.playgroundSizeX 1000m
param *.playgroundSizeY 1000m
param *.playgroundSizeZ 50m
param *.manager.moduleType "\"exploited=org.car2x.veins.nodes.Car *=org.car2x.veins.nodes.Car\""
param *.manager.moduleName "\"exploited=exploited *=uninfected\""
param *.manager.updateInterval 1s
param *.manager.host "\"localhost\""
param *.manager.port 9999
param *.manager.autoShutdown true
param *.manager.launchConfig "xmldoc(\"demo.launchd.xml\")"
param *.connectionManager.sendDirect true
param *.connectionManager.maxInterfDist 300m
param *.connectionManager.drawMaxIntfDist false
param *.**.nic.mac1609_4.useServiceChannel false
param *.**.nic.mac1609_4.txPower 20mW
param *.**.nic.mac1609_4.bitrate 6Mbps
param *.**.nic.phy80211p.sensitivity -89dBm
param *.**.nic.phy80211p.useThermalNoise true
param *.**.nic.phy80211p.thermalNoise -110dBm
param *.**.nic.phy80211p.decider "xmldoc(\"config.xml\")"
param *.**.nic.phy80211p.analogueModels "xmldoc(\"config.xml\")"
param *.**.nic.phy80211p.usePropagationDelay true
param *.**.nic.phy80211p.antenna "xmldoc(\"antenna.xml\", \"/root/Antenna[@id='monopole']\")"
param *.uninfected[*].applType "\"sim1.src.Uninfected\""
param *.uninfected[*].appl.dataPriority 2
param *.uninfected[*].appl.headerLength "80 bit"
param *.uninfected[*].appl.sendBeacons false
param *.uninfected[*].appl.dataOnSch false
param *.uninfected[*].appl.beaconInterval 1s
param *.uninfected[*].veinsmobilityType.debug true
param *.uninfected[*].veinsmobility.x 0
param *.uninfected[*].veinsmobility.y 0
param *.uninfected[*].veinsmobility.z 1.895
param *.uninfected[*0].veinsmobility.accidentCount 1
param *.uninfected[*0].veinsmobility.accidentStart 75s
param *.uninfected[*0].veinsmobility.accidentDuration 50s
param *.exploited[*].applType "\"sim1.src.Exploited\""
param *.exploited[*].appl.dataPriority 2
param *.exploited[*].appl.headerLength "80 bit"
param *.exploited[*].appl.sendBeacons false
param *.exploited[*].appl.dataOnSch false
param *.exploited[*].appl.beaconInterval 1s
param *.exploited[*].veinsmobilityType.debug true
param *.exploited[*].veinsmobility.x 0
param *.exploited[*].veinsmobility.y 0
param *.exploited[*].veinsmobility.z 1.895
param *.exploited[*0].veinsmobility.accidentCount 1
param *.exploited[*0].veinsmobility.accidentStart 75s
param *.exploited[*0].veinsmobility.accidentDuration 50s

vector 0 TestScenario.uninfected[0].veinsmobility posx ETV
vector 1 TestScenario.uninfected[0].veinsmobility posy ETV
vector 2 TestScenario.uninfected[1].veinsmobility posx ETV
vector 3 TestScenario.uninfected[1].veinsmobility posy ETV
vector 4 TestScenario.uninfected[0].veinsmobility speed ETV
vector 5 TestScenario.uninfected[2].veinsmobility posx ETV
vector 6 TestScenario.uninfected[2].veinsmobility posy ETV
vector 7 TestScenario.uninfected[0].veinsmobility acceleration ETV
vector 8 TestScenario.uninfected[0].veinsmobility co2emission ETV
vector 9 TestScenario.uninfected[1].veinsmobility speed ETV
vector 10 TestScenario.uninfected[3].veinsmobility posx ETV
vector 11 TestScenario.uninfected[3].veinsmobility posy ETV
vector 12 TestScenario.uninfected[1].veinsmobility acceleration ETV
vector 13 TestScenario.uninfected[1].veinsmobility co2emission ETV
vector 14 TestScenario.uninfected[2].veinsmobility speed ETV
vector 15 TestScenario.uninfected[4].veinsmobility posx ETV
vector 16 TestScenario.uninfected[4].veinsmobility posy ETV
vector 17 TestScenario.uninfected[2].veinsmobility acceleration ETV
vector 18 TestScenario.uninfected[2].veinsmobility co2emission ETV
vector 19 TestScenario.uninfected[3].veinsmobility speed ETV
vector 20 TestScenario.uninfected[5].veinsmobility posx ETV
vector 21 TestScenario.uninfected[5].veinsmobility posy ETV
vector 22 TestScenario.uninfected[3].veinsmobility acceleration ETV
vector 23 TestScenario.uninfected[3].veinsmobility co2emission ETV
vector 24 TestScenario.uninfected[4].veinsmobility speed ETV
vector 25 TestScenario.uninfected[6].veinsmobility posx ETV
vector 26 TestScenario.uninfected[6].veinsmobility posy ETV
vector 27 TestScenario.uninfected[4].veinsmobility acceleration ETV
vector 28 TestScenario.uninfected[4].veinsmobility co2emission ETV
vector 29 TestScenario.uninfected[5].veinsmobility speed ETV
vector 30 TestScenario.uninfected[7].veinsmobility posx ETV
vector 31 TestScenario.uninfected[7].veinsmobility posy ETV
vector 32 TestScenario.uninfected[5].veinsmobility acceleration ETV
vector 33 TestScenario.uninfected[5].veinsmobility co2emission ETV
vector 34 TestScenario.uninfected[6].veinsmobility speed ETV
vector 35 TestScenario.uninfected[8].veinsmobility posx ETV
vector 36 TestScenario.uninfected[8].veinsmobility posy ETV
vector 37 TestScenario.uninfected[6].veinsmobility acceleration ETV
vector 38 TestScenario.uninfected[6].veinsmobility co2emission ETV
vector 39 TestScenario.uninfected[7].veinsmobility speed ETV
vector 40 TestScenario.uninfected[9].veinsmobility posx ETV
vector 41 TestScenario.uninfected[9].veinsmobility posy ETV
vector 42 TestScenario.uninfected[7].veinsmobility acceleration ETV
vector 43 TestScenario.uninfected[7].veinsmobility co2emission ETV
vector 44 TestScenario.uninfected[8].veinsmobility speed ETV
vector 45 TestScenario.uninfected[10].veinsmobility posx ETV
vector 46 TestScenario.uninfected[10].veinsmobility posy ETV
vector 47 TestScenario.uninfected[8].veinsmobility acceleration ETV
vector 48 TestScenario.uninfected[8].veinsmobility co2emission ETV
vector 49 TestScenario.uninfected[9].veinsmobility speed ETV
vector 50 TestScenario.uninfected[11].veinsmobility posx ETV
vector 51 TestScenario.uninfected[11].veinsmobility posy ETV
vector 52 TestScenario.uninfected[9].veinsmobility acceleration ETV
vector 53 TestScenario.uninfected[9].veinsmobility co2emission ETV
vector 54 TestScenario.uninfected[10].veinsmobility speed ETV
vector 55 TestScenario.uninfected[12].veinsmobility posx ETV
vector 56 TestScenario.uninfected[12].veinsmobility posy ETV
vector 57 TestScenario.uninfected[10].veinsmobility acceleration ETV
vector 58 TestScenario.uninfected[10].veinsmobility co2emission ETV
vector 59 TestScenario.uninfected[11].veinsmobility speed ETV
vector 60 TestScenario.uninfected[13].veinsmobility posx ETV
vector 61 TestScenario.uninfected[13].veinsmobility posy ETV
vector 62 TestScenario.uninfected[11].veinsmobility acceleration ETV
vector 63 TestScenario.uninfected[11].veinsmobility co2emission ETV
vector 64 TestScenario.uninfected[12].veinsmobility speed ETV
vector 65 TestScenario.uninfected[14].veinsmobility posx ETV
vector 66 TestScenario.uninfected[14].veinsmobility posy ETV
vector 67 TestScenario.uninfected[12].veinsmobility acceleration ETV
vector 68 TestScenario.uninfected[12].veinsmobility co2emission ETV
vector 69 TestScenario.uninfected[13].veinsmobility speed ETV
0	2	1	238.33130028169
0	12	2	238.33130028169
0	31	3	241.29043300185
0	71	4	246.13581405062
0	129	5	252.95160311503
0	223	6	261.74815797592
0	318	7	272.64644069597
0	434	8	285.48956514724
0	572	9	299.30126151605
0	737	10	313.14492636243
0	918	11	326.97829308077
0	1117	12	340.769842025
0	1357	13	354.60005657968
0	1609	14	368.42574301749
0	1875	15	382.26350665311
1	2	1	26.6
1	12	2	26.6
1	31	3	26.6
1	71	4	26.6
1	129	5	26.6
1	223	6	26.6
1	318	7	26.6
1	434	8	26.6
1	572	9	26.6
1	737	10	26.6
1	918	11	26.6
1	1117	12	26.6
1	1357	13	26.6
1	1609	14	26.6
1	1875	15	26.6
2	12	2	211.61882214952
2	31	3	211.61882214952
2	71	4	208.5598590294
2	129	5	203.53042320467
2	223	6	196.46786351197
2	318	7	187.59526837881
2	434	8	176.80308745446
2	572	9	164.00579972206
2	737	10	150.19162237805
2	918	11	136.38893132047
2	1117	12	122.56872522552
2	1357	13	108.73286307523
2	1609	14	94.883514324991
2	1875	15	81.047918083856
3	12	2	823.4
3	31	3	823.4
3	71	4	823.4
3	129	5	823.4
3	223	6	823.4
3	318	7	823.4
3	434	8	823.4
3	572	9	823.4
3	737	10	823.4
3	918	11	823.4
3	1117	12	823.4
3	1357	13	823.4
3	1609	14	823.4
3	1875	15	823.4
4	12	2	3.722822103166
4	31	3	5.6547195929041
4	71	4	7.6910999753055
4	129	5	9.65872088387
4	223	6	11.856767098923
4	318	7	13.7805296525
4	434	8	13.864000451695
4	572	9	13.848397771178
4	737	10	13.787930121664
4	918	11	13.795484245699
4	1117	12	13.830441952762
4	1357	13	13.769754300893
4	1609	14	13.844698121375
4	1875	15	13.857838162147
5	31	3	438.34775942317
5	71	4	438.34775942317
5	129	5	441.4088176292
5	223	6	446.45434897665
5	318	7	453.53617424597
5	434	8	462.57975371523
5	572	9	473.44364339012
5	737	10	486.20180991347
5	918	11	500.03542001702
5	1117	12	513.85840024455
5	1357	13	527.67166847357
5	1609	14	541.50101008848
5	1875	15	555.3072618635
6	31	3	826.6
6	71	4	826.6
6	129	5	826.6
6	223	6	826.6
6	318	7	826.6
6	434	8	826.6
6	572	9	826.6
6	737	10	826.6
6	918	11	826.6
6	1117	12	826.6
6	1357	13	826.6
6	1609	14	826.6
6	1875	15	826.6
7	31	3	1.9318974897382
7	71	4	2.0363803824014
7	129	5	1.9676209085644
7	223	6	2.1980462150532
7	318	7	1.9237625535764
7	434	8	0.083470799195652
7	572	9	-0.015602680516896
7	737	10	-0.060467649514321
7	918	11	0.0075541240349413
7	1117	12	0.034957707063295
7	1357	13	-0.060687651869376
7	1609	14	0.074943820482586
7	1875	15	0.013140040771104
8	31	3	4.0322527122872
8	71	4	5.2975898300737
8	129	5	6.2393095735349
8	223	6	8.1168280262473
8	318	7	8.4055474696849
8	434	8	2.3038658754484
8	572	9	1.9713149755574
8	737	10	1.8163442131359
8	918	11	2.0431495384622
8	1117	12	2.1380878866565
8	1357	13	1.8140458596149
8	1609	14	2.2730687791507
8	1875	15	2.0682301560311
9	31	3	3.8605596513442
9	71	4	5.9418282538514
9	129	5	7.8834085376422
9	223	6	9.7317548171735
9	318	7	11.675566087542
9	434	8	13.750384700955
9	572	9	13.772424752957
9	737	10	13.762037173596
9	918	11	13.877448550137
9	1117	12	13.824554434547
9	1357	13	13.838320645229
9	1609	14	13.823618242634
9	1875	15	13.775795958119
10	71	4	226.6
10	129	5	226.6
10	223	6	226.6
10	318	7	226.6
10	434	8	226.6
10	572	9	226.6
10	737	10	226.6
10	918	11	226.6
10	1117	12	226.6
10	1357	13	226.6
10	1609	14	226.6
10	1875	15	226.6
11	71	4	611.63399887184
11	129	5	611.63399887184
11	223	6	608.44140993568
11	318	7	603.24065654773
11	434	8	596.11585985655
11	572	9	586.98487779614
11	737	10	575.69661619577
11	918	11	562.4854202618
11	1117	12	548.65611921134
11	1357	13	534.82768424248
11	1609	14	521.00029293491
11	1875	15	507.17435879345
12	71	4	2.0812686025072
12	129	5	1.9415802837908
12	223	6	1.8483462795313
12	318	7	1.9438112703687
12	434	8	2.0748186134128
12	572	9	0.022040052001694
12	737	10	-0.010387579360977
12	918	11	0.11541137654102
12	1117	12	-0.052894115590025
12	1357	13	0.013766210682224
12	1609	14	-0.014702402595431
12	1875	15	-0.047822284514549
13	71	4	4.3963491482435
13	129	5	5.2243668643481
13	223	6	5.9996266345595
13	318	7	7.2897778672873
13	434	8	8.8891102605953
13	572	9	2.0888619953199
13	737	10	1.9802089545085
13	918	11	2.4123263422403
13	1117	12	1.8447448357645
13	1357	13	2.0682778386761
13	1609	14	1.9718974112539
13	1875	15	1.8572791474781
14	71	4	3.9817542820289
14	129	5	5.8752129771961
14	223	6	8.0315336460323
14	318	7	9.9136278329422
14	434	8	11.769583618686
14	572	9	13.604877206397
14	737	10	13.853375086449
14	918	11	13.854857372537
14	1117	12	13.813172058796
14	1357	13	13.884019049574
14	1609	14	13.793787321439
14	1875	15	13.884849982031
15	129	5	426.6
15	223	6	426.6
15	318	7	426.6
15	434	8	426.6
15	572	9	426.6
15	737	10	426.6
15	918	11	426.6
15	1117	12	426.6
15	1357	13	426.6
15	1609	14	426.6
15	1875	15	426.6
16	129	5	811.65841929311
16	223	6	811.65841929311
16	318	7	808.5199391547
16	434	8	803.41611344729
16	572	9	796.29559457426
16	737	10	787.28118043964
16	918	11	776.30651759196
16	1117	12	763.42843493657
16	1357	13	749.60805017724
16	1609	14	735.78760342183
16	1875	15	721.97435264293
17	129	5	1.8934586951672
17	223	6	2.1563206688361
17	318	7	1.88209418691
17	434	8	1.8559557857434
17	572	9	1.8352935877116
17	737	10	0.24849788005181
17	918	11	0.0014822860877022
17	1117	12	-0.041685313740745
17	1357	13	0.070846990777644
17	1609	14	-0.090231728134675
17	1875	15	0.091062660592142
18	129	5	4.0931528521982
18	223	6	5.7190741242088
18	318	7	6.1749091097848
18	434	8	7.0927377317887
18	572	9	8.0164398552752
18	737	10	2.8535438728518
18	918	11	2.0289928328033
18	1117	12	1.8810522803744
18	1357	13	2.2640623022785
18	1609	14	1.7179053222839
18	1875	15	2.3318076288463
19	129	5	4.1837425248161
19	223	6	6.1261965204705
19	318	7	7.9842654910403
19	434	8	10.128425986962
19	572	9	12.218075431841
19	737	10	13.798545677904
19	918	11	13.856701854216
19	1117	12	13.766016220436
19	1357	13	13.793971254437
19	1609	14	13.839712470362
19	1875	15	13.833559774675
20	223	6	626.6
20	318	7	626.6
20	434	8	626.6
20	572	9	626.6
20	737	10	626.6
20	918	11	626.6
20	1117	12	626.6
20	1357	13	626.6
20	1609	14	626.6
20	1875	15	626.6
21	223	6	211.64598335749
21	318	7	211.64598335749
21	434	8	208.61652980736
21	572	9	203.64374644641
21	737	10	196.69506974543
21	918	11	187.71599328133
21	1117	12	176.55774764107
21	1357	13	163.41193521265
21	1609	14	149.57562913917
21	1875	15	135.75500420109
22	223	6	1.9424539956544
22	318	7	1.8580689705699
22	434	8	2.144160495922
22	572	9	2.089649444879
22	737	10	1.5804702460627
22	918	11	0.058156176311895
22	1117	12	-0.090685633779502
22	1357	13	0.027955034000334
22	1609	14	0.045741215925663
22	1875	15	-0.0061526956874864
23	223	6	4.2946323108477
23	318	7	5.11749157018
23	434	8	6.9283691925252
23	572	9	8.0209828473551
23	737	10	7.2741174462118
23	918	11	2.2184410870702
23	1117	12	1.7142022338355
23	1357	13	2.1108137111118
23	1609	14	2.1750719672801
23	1875	15	2.0013723990503
24	223	6	4.0393522846261
24	318	7	5.9052617376326
24	434	8	8.039075936182
24	572	9	9.8441749260952
24	737	10	11.888290320721
24	918	11	13.723958272541
24	1117	12	13.778496056341
24	1357	13	13.859758491216
24	1609	14	13.801533117299
24	1875	15	13.882207241184
25	318	7	826.6
25	434	8	826.6
25	572	9	826.6
25	737	10	826.6
25	918	11	826.6
25	1117	12	826.6
25	1357	13	826.6
25	1609	14	826.6
25	1875	15	826.6
26	318	7	411.64960145386
26	434	8	411.64960145386
26	572	9	408.59352432281
26	737	10	403.50680878578
26	918	11	396.57486241703
26	1117	12	387.8338831889
26	1357	13	377.08657796867
26	1609	14	364.32425572671
26	1875	15	350.48644992107
27	318	7	1.8659094530065
27	434	8	2.1338141985494
27	572	9	1.8050989899132
27	737	10	2.0441153946263
27	918	11	1.8356679518195
27	1117	12	0.05453778380015
27	1357	13	0.081262434874661
27	1609	14	-0.058225373916795
27	1875	15	0.08067412388511
28	318	7	4.0693960855429
28	434	8	5.6798880250686
28	572	9	5.9555104999338
28	737	10	7.6952551078099
28	918	11	8.0822547659377
28	1117	12	2.1974189542526
28	1357	13	2.2959736335064
28	1609	14	1.8249777674441
28	1875	15	2.2967249607751
29	318	7	3.9208195363214
29	434	8	5.8707609540919
29	572	9	7.906066119433
29	737	10	9.9490073581641
29	918	11	12.08473446822
29	1117	12	13.817484531056
29	1357	13	13.831619154494
29	1609	14	13.821088438928
29	1875	15	13.822710426713
30	434	8	611.64810680636
30	572	9	611.64810680636
30	737	10	608.68010339678
30	918	11	603.64965893085
30	1117	12	596.46390425666
30	1357	13	587.29583618458
30	1609	14	576.04380603223
30	1875	15	562.89255364879
31	434	8	823.4
31	572	9	823.4
31	737	10	823.4
31	918	11	823.4
31	1117	12	823.4
31	1357	13	823.4
31	1609	14	823.4
31	1875	15	823.4
32	434	8	1.9499414177705
32	572	9	2.0353051653411
32	737	10	2.0429412387311
32	918	11	2.1357271100557
32	1117	12	1.7327500628358
32	1357	13	0.014134623438585
32	1609	14	-0.010530715566128
32	1875	15	0.0016219877847483
33	434	8	4.1707787383362
33	572	9	5.415033008706
33	737	10	6.5792952133712
33	918	11	8.076140285373
33	1117	12	7.7903393408821
33	1357	13	2.0688049146094
33	1609	14	1.98554578524
33	1875	15	2.0261897656441
34	434	8	3.9761301818291
34	572	9	5.8769773846131
34	737	10	7.8117673657752
34	918	11	9.6169954421918
34	1117	12	11.719312252476
34	1357	13	13.628178203165
34	1609	14	13.80909002508
34	1875	15	13.882059789945
35	572	9	811.64220992029
35	737	10	811.64220992029
35	918	11	808.57986980274
35	1117	12	803.67538153498
35	1357	13	796.87310409974
35	1609	14	788.18118494674
35	1875	15	777.59019409884
36	572	9	423.4
36	737	10	423.4
36	918	11	423.4
36	1117	12	423.4
36	1357	13	423.4
36	1609	14	423.4
36	1875	15	423.4
37	572	9	1.9008472027839
37	737	10	1.9347899811622
37	918	11	1.8052280764165
37	1117	12	2.1023168102838
37	1357	13	1.9088659506897
37	1609	14	0.18091182191516
37	1875	15	0.072969764864537
38	572	9	4.1045247158836
38	737	10	5.1733820944468
38	918	11	5.8400593430487
38	1117	12	7.7617161256004
38	1357	13	8.2707077585943
38	1609	14	2.6214817793988
38	1875	15	2.2709315840464
39	572	9	3.7866329477703
39	737	10	6.0647042915899
39	918	11	8.0842136048105
39	1117	12	10.105454298728
39	1357	13	12.081901207317
39	1609	14	13.767188027778
39	1875	15	13.828293162012
40	737	10	423.4
40	918	11	423.4
40	1117	12	423.4
40	1357	13	423.4
40	1609	14	423.4
40	1875	15	423.4
41	737	10	438.37394646382
41	918	11	438.37394646382
41	1117	12	441.58845933473
41	1357	13	446.83619563402
41	1609	14	454.10210413421
41	1875	15	463.41379122539
42	737	10	2.2780713438196
42	918	11	2.0195093132206
42	1117	12	2.0212406939175
42	1357	13	1.976446908589
42	1609	14	1.6852868204612
42	1875	15	0.061105134233367
43	737	10	4.7527825116008
43	918	11	5.4833907689909
43	1117	12	6.6153783136357
43	1357	13	7.6106484103923
43	1609	14	7.6067800552737
43	1875	15	2.2249916374652
44	737	10	3.9024381770133
44	918	11	5.7708418230792
44	1117	12	7.557713940999
44	1357	13	9.5422919798535
44	1609	14	11.455618381825
44	1875	15	13.349124599421
45	918	11	811.61667995088
45	1117	12	811.61667995088
45	1357	13	808.46766755308
45	1609	14	803.54177084323
45	1875	15	796.79941365156
46	918	11	623.4
46	1117	12	623.4
46	1357	13	623.4
46	1609	14	623.4
46	1875	15	623.4
47	918	11	1.8684036460659
47	1117	12	1.7868721179198
47	1357	13	1.9845780388545
47	1609	14	1.9133264019713
47	1875	15	1.8935062175966
48	918	11	4.0046642824589
48	1117	12	4.7690881648102
48	1357	13	6.2145049806578
48	1609	14	7.0838146258346
48	1875	15	8.0653856214616
49	918	11	4.1564618187956
49	1117	12	6.166267852108
49	1357	13	8.2056421901472
49	1609	14	10.112675556927
49	1875	15	11.954567162455
50	1117	12	238.36776095717
50	1357	13	238.36776095717
50	1609	14	241.50573602156
50	1875	15	246.55727212941
51	1117	12	826.6
51	1357	13	826.6
51	1609	14	826.6
51	1875	15	826.6
52	1117	12	2.0098060333123
52	1357	13	2.0393743380392
52	1609	14	1.9070333667798
52	1875	15	1.8418916055281
53	1117	12	4.4158333954915
53	1357	13	5.5898647927016
53	1609	14	6.3411078593907
53	1875	15	7.1510958354444
54	1117	12	3.9706238567036
54	1357	13	5.6597002274262
54	1609	14	7.6467638217353
54	1875	15	9.56469267569
55	1357	13	623.4
55	1609	14	623.4
55	1875	15	623.4
56	1357	13	38.36469348464
56	1609	14	38.36469348464
56	1875	15	41.410004064334
57	1357	13	1.6890763707226
57	1609	14	1.9870635943091
57	1875	15	1.9179288539547
58	1357	13	3.703651040984
58	1609	14	5.1820852283218
58	1875	15	6.07323364163
59	1357	13	3.9853952824664
59	1609	14	5.951567368681
59	1875	15	7.8807481533046
60	1609	14	26.6
60	1875	15	26.6
61	1609	14	411.64691181547
61	1875	15	411.64691181547
62	1609	14	1.9661720862146
62	1875	15	1.9291807846236
63	1609	14	4.2367132862338
63	1875	15	5.1993979958097
64	1609	14	3.9614284594792
64	1875	15	6.0421246541285
65	1875	15	211.66772971701
66	1875	15	623.4
67	1875	15	2.0806961946492
68	1875	15	4.4516591750969
69	1875	15	3.8004325452788
vector 70 TestScenario.uninfected[15].veinsmobility posx ETV
vector 71 TestScenario.uninfected[15].veinsmobility posy ETV
vector 72 TestScenario.uninfected[13].veinsmobility acceleration ETV
vector 73 TestScenario.uninfected[13].veinsmobility co2emission ETV
vector 74 TestScenario.uninfected[14].veinsmobility speed ETV
vector 75 TestScenario.uninfected[16].veinsmobility posx ETV
vector 76 TestScenario.uninfected[16].veinsmobility posy ETV
vector 77 TestScenario.uninfected[14].veinsmobility acceleration ETV
vector 78 TestScenario.uninfected[14].veinsmobility co2emission ETV
vector 79 TestScenario.uninfected[15].veinsmobility speed ETV
vector 80 TestScenario.uninfected[17].veinsmobility posx ETV
vector 81 TestScenario.uninfected[17].veinsmobility posy ETV
vector 82 TestScenario.uninfected[15].veinsmobility acceleration ETV
vector 83 TestScenario.uninfected[15].veinsmobility co2emission ETV
vector 84 TestScenario.uninfected[16].veinsmobility speed ETV
vector 85 TestScenario.uninfected[18].veinsmobility posx ETV
vector 86 TestScenario.uninfected[18].veinsmobility posy ETV
vector 87 TestScenario.uninfected[16].veinsmobility acceleration ETV
vector 88 TestScenario.uninfected[16].veinsmobility co2emission ETV
vector 89 TestScenario.uninfected[17].veinsmobility speed ETV
vector 90 TestScenario.uninfected[19].veinsmobility posx ETV
vector 91 TestScenario.uninfected[19].veinsmobility posy ETV
vector 92 TestScenario.uninfected[17].veinsmobility acceleration ETV
vector 93 TestScenario.uninfected[17].veinsmobility co2emission ETV
vector 94 TestScenario.uninfected[18].veinsmobility speed ETV
vector 95 TestScenario.uninfected[20].veinsmobility posx ETV
vector 96 TestScenario.uninfected[20].veinsmobility posy ETV
vector 97 TestScenario.uninfected[18].veinsmobility acceleration ETV
vector 98 TestScenario.uninfected[18].veinsmobility co2emission ETV
vector 99 TestScenario.uninfected[19].veinsmobility speed ETV
vector 100 TestScenario.uninfected[21].veinsmobility posx ETV
vector 101 TestScenario.uninfected[21].veinsmobility posy ETV
vector 102 TestScenario.uninfected[19].veinsmobility acceleration ETV
vector 103 TestScenario.uninfected[19].veinsmobility co2emission ETV
vector 104 TestScenario.uninfected[20].veinsmobility speed ETV
vector 105 TestScenario.uninfected[22].veinsmobility posx ETV
vector 106 TestScenario.uninfected[22].veinsmobility posy ETV
vector 107 TestScenario.uninfected[20].veinsmobility acceleration ETV
vector 108 TestScenario.uninfected[20].veinsmobility co2emission ETV
vector 109 TestScenario.uninfected[21].veinsmobility speed ETV
vector 110 TestScenario.uninfected[23].veinsmobility posx ETV
vector 111 TestScenario.uninfected[23].veinsmobility posy ETV
vector 112 TestScenario.uninfected[21].veinsmobility acceleration ETV
vector 113 TestScenario.uninfected[21].veinsmobility co2emission ETV
vector 114 TestScenario.uninfected[22].veinsmobility speed ETV
vector 115 TestScenario.uninfected[24].veinsmobility posx ETV
vector 116 TestScenario.uninfected[24].veinsmobility posy ETV
vector 117 TestScenario.uninfected[22].veinsmobility acceleration ETV
vector 118 TestScenario.uninfected[22].veinsmobility co2emission ETV
vector 119 TestScenario.uninfected[23].veinsmobility speed ETV
vector 120 TestScenario.uninfected[25].veinsmobility posx ETV
vector 121 TestScenario.uninfected[25].veinsmobility posy ETV
vector 122 TestScenario.uninfected[23].veinsmobility acceleration ETV
vector 123 TestScenario.uninfected[23].veinsmobility co2emission ETV
vector 124 TestScenario.uninfected[24].veinsmobility speed ETV
vector 125 TestScenario.uninfected[26].veinsmobility posx ETV
vector 126 TestScenario.uninfected[26].veinsmobility posy ETV
vector 127 TestScenario.uninfected[24].veinsmobility acceleration ETV
vector 128 TestScenario.uninfected[24].veinsmobility co2emission ETV
vector 129 TestScenario.uninfected[25].veinsmobility speed ETV
vector 130 TestScenario.uninfected[27].veinsmobility posx ETV
vector 131 TestScenario.uninfected[27].veinsmobility posy ETV
vector 132 TestScenario.uninfected[25].veinsmobility acceleration ETV
vector 133 TestScena