file 111931 1595282208                                          
version 2
run Default-0-20200720-14:56:29-36748
attr configname Default
attr datetime 20200720-14:56:29
attr experiment Default
attr inifile omnetpp.ini
attr iterationvars ""
attr iterationvarsf ""
attr measurement ""
attr network sim1.src.TestScenario
attr processid 36748
attr repetition 0
attr replication #0
attr resultdir results
attr runnumber 0
attr seedset 0
param *.playgroundSizeX 1000m
param *.playgroundSizeY 1000m
param *.playgroundSizeZ 50m
param *.manager.moduleType "\"exploited=org.car2x.veins.nodes.Car *=org.car2x.veins.nodes.Car\""
param *.manager.moduleName "\"exploited=exploited *=uninfected\""
param *.manager.updateInterval 1s
param *.manager.host "\"localhost\""
param *.manager.port 9999
param *.manager.autoShutdown true
param *.manager.launchConfig "xmldoc(\"demo.launchd.xml\")"
param *.connectionManager.sendDirect true
param *.connectionManager.maxInterfDist 300m
param *.connectionManager.drawMaxIntfDist false
param *.**.nic.mac1609_4.useServiceChannel false
param *.**.nic.mac1609_4.txPower 20mW
param *.**.nic.mac1609_4.bitrate 6Mbps
param *.**.nic.phy80211p.sensitivity -89dBm
param *.**.nic.phy80211p.useThermalNoise true
param *.**.nic.phy80211p.thermalNoise -110dBm
param *.**.nic.phy80211p.decider "xmldoc(\"config.xml\")"
param *.**.nic.phy80211p.analogueModels "xmldoc(\"config.xml\")"
param *.**.nic.phy80211p.usePropagationDelay true
param *.**.nic.phy80211p.antenna "xmldoc(\"antenna.xml\", \"/root/Antenna[@id='monopole']\")"
param *.uninfected[*].applType "\"sim1.src.Uninfected\""
param *.uninfected[*].appl.dataPriority 2
param *.uninfected[*].appl.headerLength "80 bit"
param *.uninfected[*].appl.sendBeacons false
param *.uninfected[*].appl.dataOnSch false
param *.uninfected[*].appl.beaconInterval 1s
param *.uninfected[*].veinsmobilityType.debug true
param *.uninfected[*].veinsmobility.x 0
param *.uninfected[*].veinsmobility.y 0
param *.uninfected[*].veinsmobility.z 1.895
param *.uninfected[*0].veinsmobility.accidentCount 1
param *.uninfected[*0].veinsmobility.accidentStart 75s
param *.uninfected[*0].veinsmobility.accidentDuration 50s
param *.exploited[*].applType "\"sim1.src.Exploited\""
param *.exploited[*].appl.dataPriority 2
param *.exploited[*].appl.headerLength "80 bit"
param *.exploited[*].appl.sendBeacons false
param *.exploited[*].appl.dataOnSch false
param *.exploited[*].appl.beaconInterval 1s
param *.exploited[*].veinsmobilityType.debug true
param *.exploited[*].veinsmobility.x 0
param *.exploited[*].veinsmobility.y 0
param *.exploited[*].veinsmobility.z 1.895
param *.exploited[*0].veinsmobility.accidentCount 1
param *.exploited[*0].veinsmobility.accidentStart 75s
param *.exploited[*0].veinsmobility.accidentDuration 50s

vector 0 TestScenario.uninfected[0].veinsmobility posx ETV
vector 1 TestScenario.uninfected[0].veinsmobility posy ETV
vector 2 TestScenario.uninfected[1].veinsmobility posx ETV
vector 3 TestScenario.uninfected[1].veinsmobility posy ETV
vector 4 TestScenario.uninfected[0].veinsmobility speed ETV
vector 5 TestScenario.uninfected[2].veinsmobility posx ETV
vector 6 TestScenario.uninfected[2].veinsmobility posy ETV
vector 7 TestScenario.uninfected[0].veinsmobility acceleration ETV
vector 8 TestScenario.uninfected[0].veinsmobility co2emission ETV
vector 9 TestScenario.uninfected[1].veinsmobility speed ETV
vector 10 TestScenario.uninfected[3].veinsmobility posx ETV
vector 11 TestScenario.uninfected[3].veinsmobility posy ETV
vector 12 TestScenario.uninfected[1].veinsmobility acceleration ETV
vector 13 TestScenario.uninfected[1].veinsmobility co2emission ETV
vector 14 TestScenario.uninfected[2].veinsmobility speed ETV
vector 15 TestScenario.uninfected[4].veinsmobility posx ETV
vector 16 TestScenario.uninfected[4].veinsmobility posy ETV
vector 17 TestScenario.uninfected[2].veinsmobility acceleration ETV
vector 18 TestScenario.uninfected[2].veinsmobility co2emission ETV
vector 19 TestScenario.uninfected[3].veinsmobility speed ETV
vector 20 TestScenario.uninfected[5].veinsmobility posx ETV
vector 21 TestScenario.uninfected[5].veinsmobility posy ETV
vector 22 TestScenario.uninfected[3].veinsmobility acceleration ETV
vector 23 TestScenario.uninfected[3].veinsmobility co2emission ETV
vector 24 TestScenario.uninfected[4].veinsmobility speed ETV
vector 25 TestScenario.uninfected[6].veinsmobility posx ETV
vector 26 TestScenario.uninfected[6].veinsmobility posy ETV
vector 27 TestScenario.uninfected[4].veinsmobility acceleration ETV
vector 28 TestScenario.uninfected[4].veinsmobility co2emission ETV
vector 29 TestScenario.uninfected[5].veinsmobility speed ETV
vector 30 TestScenario.uninfected[7].veinsmobility posx ETV
vector 31 TestScenario.uninfected[7].veinsmobility posy ETV
vector 32 TestScenario.uninfected[5].veinsmobility acceleration ETV
vector 33 TestScenario.uninfected[5].veinsmobility co2emission ETV
vector 34 TestScenario.uninfected[6].veinsmobility speed ETV
vector 35 TestScenario.uninfected[8].veinsmobility posx ETV
vector 36 TestScenario.uninfected[8].veinsmobility posy ETV
vector 37 TestScenario.uninfected[6].veinsmobility acceleration ETV
vector 38 TestScenario.uninfected[6].veinsmobility co2emission ETV
vector 39 TestScenario.uninfected[7].veinsmobility speed ETV
vector 40 TestScenario.uninfected[9].veinsmobility posx ETV
vector 41 TestScenario.uninfected[9].veinsmobility posy ETV
vector 42 TestScenario.uninfected[7].veinsmobility acceleration ETV
vector 43 TestScenario.uninfected[7].veinsmobility co2emission ETV
vector 44 TestScenario.uninfected[8].veinsmobility speed ETV
vector 45 TestScenario.uninfected[10].veinsmobility posx ETV
vector 46 TestScenario.uninfected[10].veinsmobility posy ETV
vector 47 TestScenario.uninfected[8].veinsmobility acceleration ETV
vector 48 TestScenario.uninfected[8].veinsmobility co2emission ETV
vector 49 TestScenario.uninfected[9].veinsmobility speed ETV
vector 50 TestScenario.uninfected[11].veinsmobility posx ETV
vector 51 TestScenario.uninfected[11].veinsmobility posy ETV
vector 52 TestScenario.uninfected[9].veinsmobility acceleration ETV
vector 53 TestScenario.uninfected[9].veinsmobility co2emission ETV
vector 54 TestScenario.uninfected[10].veinsmobility speed ETV
vector 55 TestScenario.uninfected[12].veinsmobility posx ETV
vector 56 TestScenario.uninfected[12].veinsmobility posy ETV
vector 57 TestScenario.uninfected[10].veinsmobility acceleration ETV
vector 58 TestScenario.uninfected[10].veinsmobility co2emission ETV
vector 59 TestScenario.uninfected[11].veinsmobility speed ETV
vector 60 TestScenario.uninfected[13].veinsmobility posx ETV
vector 61 TestScenario.uninfected[13].veinsmobility posy ETV
vector 62 TestScenario.uninfected[11].veinsmobility acceleration ETV
vector 63 TestScenario.uninfected[11].veinsmobility co2emission ETV
vector 64 TestScenario.uninfected[12].veinsmobility speed ETV
vector 65 TestScenario.uninfected[14].veinsmobility posx ETV
vector 66 TestScenario.uninfected[14].veinsmobility posy ETV
vector 67 TestScenario.uninfected[12].veinsmobility acceleration ETV
vector 68 TestScenario.uninfected[12].veinsmobility co2emission ETV
vector 69 TestScenario.uninfected[13].veinsmobility speed ETV
vector 70 TestScenario.uninfected[15].veinsmobility posx ETV
vector 71 TestScenario.uninfected[15].veinsmobility posy ETV
vector 72 TestScenario.uninfected[13].veinsmobility acceleration ETV
vector 73 TestScenario.uninfected[13].veinsmobility co2emission ETV
vector 74 TestScenario.uninfected[14].veinsmobility speed ETV
8	7585 360 31 2223 3 16 14 1.8140458596149 8.4055474696849 50.474118156533 257.58268107375
7	7945 383 31 2223 3 16 14 -0.060687651869376 2.1980462150532 10.11468484014 20.304906385676
4	8328 379 12 2223 2 16 15 3.722822103166 13.864000451695 176.80071137739 2249.2553226589
1	8707 231 2 2223 1 16 16 26.6 26.6 425.6 11320.96
0	8938 405 2 2223 1 16 16 238.33130028169 396.09961021668 4818.5078540012 1495923.4119671
vector 75 TestScenario.uninfected[16].veinsmobility posx ETV
vector 76 TestScenario.uninfected[16].veinsmobility posy ETV
vector 77 TestScenario.uninfected[14].veinsmobility acceleration ETV
vector 78 TestScenario.uninfected[14].veinsmobility co2emission ETV
vector 79 TestScenario.uninfected[15].veinsmobility speed ETV
vector 80 TestScenario.uninfected[17].veinsmobility posx ETV
vector 81 TestScenario.uninfected[17].veinsmobility posy ETV
vector 82 TestScenario.uninfected[15].veinsmobility acceleration ETV
vector 83 TestScenario.uninfected[15].veinsmobility co2emission ETV
vector 84 TestScenario.uninfected[16].veinsmobility speed ETV
18	9995 380 129 2982 5 18 14 1.7179053222839 8.0164398552752 50.208377241879 243.72827045511
17	10375 399 129 2982 5 18 14 -0.090231728134675 2.1563206688361 9.8932096750238 18.685087801256
14	10774 405 71 2982 4 18 15 3.9817542820289 13.884849982031 177.77008819269 2261.6217958476
6	11179 254 31 2982 3 18 16 826.6 826.6 13225.6 10932280.96
5	11433 412 31 2982 3 18 16 438.34775942317 596.79834308495 8027.5880151124 4072715.9594246
vector 85 TestScenario.uninfected[18].veinsmobility posx ETV
vector 86 TestScenario.uninfected[18].veinsmobility posy ETV
vector 87 TestScenario.uninfected[16].veinsmobility acceleration ETV
vector 88 TestScenario.uninfected[16].veinsmobility co2emission ETV
vector 89 TestScenario.uninfected[17].veinsmobility speed ETV
vector 90 TestScenario.uninfected[19].veinsmobility posx ETV
vector 91 TestScenario.uninfected[19].veinsmobility posy ETV
vector 92 TestScenario.uninfected[17].veinsmobility acceleration ETV
vector 93 TestScenario.uninfected[17].veinsmobility co2emission ETV
vector 94 TestScenario.uninfected[18].veinsmobility speed ETV
vector 95 TestScenario.uninfected[20].veinsmobility posx ETV
vector 96 TestScenario.uninfected[20].veinsmobility posy ETV
vector 97 TestScenario.uninfected[18].veinsmobility acceleration ETV
vector 98 TestScenario.uninfected[18].veinsmobility co2emission ETV
vector 99 TestScenario.uninfected[19].veinsmobility speed ETV
vector 100 TestScenario.uninfected[21].veinsmobility posx ETV
vector 101 TestScenario.uninfected[21].veinsmobility posy ETV
vector 102 TestScenario.uninfected[19].veinsmobility acceleration ETV
vector 103 TestScenario.uninfected[19].veinsmobility co2emission ETV
vector 104 TestScenario.uninfected[20].veinsmobility speed ETV
vector 105 TestScenario.uninfected[22].veinsmobility posx ETV
vector 106 TestScenario.uninfected[22].veinsmobility posy ETV
vector 107 TestScenario.uninfected[20].veinsmobility acceleration ETV
vector 108 TestScenario.uninfected[20].veinsmobility co2emission ETV
vector 109 TestScenario.uninfected[21].veinsmobility speed ETV
vector 110 TestScenario.uninfected[23].veinsmobility posx ETV
vector 111 TestScenario.uninfected[23].veinsmobility posy ETV
vector 112 TestScenario.uninfected[21].veinsmobility acceleration ETV
vector 113 TestScenario.uninfected[21].veinsmobility co2emission ETV
vector 114 TestScenario.uninfected[22].veinsmobility speed ETV
vector 115 TestScenario.uninfected[24].veinsmobility posx ETV
vector 116 TestScenario.uninfected[24].veinsmobility posy ETV
vector 117 TestScenario.uninfected[22].veinsmobility acceleration ETV
vector 118 TestScenario.uninfected[22].veinsmobility co2emission ETV
vector 119 TestScenario.uninfected[23].veinsmobility speed ETV
vector 120 TestScenario.uninfected[25].veinsmobility posx ETV
vector 121 TestScenario.uninfected[25].veinsmobility posy ETV
vector 122 TestScenario.uninfected[23].veinsmobility acceleration ETV
vector 123 TestScenario.uninfected[23].veinsmobility co2emission ETV
vector 124 TestScenario.uninfected[24].veinsmobility speed ETV
vector 125 TestScenario.uninfected[26].veinsmobility posx ETV
vector 126 TestScenario.uninfected[26].veinsmobility posy ETV
vector 127 TestScenario.uninfected[24].veinsmobility acceleration ETV
vector 128 TestScenario.uninfected[24].veinsmobility co2emission ETV
vector 129 TestScenario.uninfected[25].veinsmobility speed ETV
vector 130 TestScenario.uninfected[27].veinsmobility posx ETV
vector 131 TestScenario.uninfected[27].veinsmobility posy ETV
vector 132 TestScenario.uninfected[25].veinsmobility acceleration ETV
vector 133 TestScenario.uninfected[25].veinsmobility co2emission ETV
vector 134 TestScenario.uninfected[26].veinsmobility speed ETV
vector 135 TestScenario.uninfected[28].veinsmobility posx ETV
vector 136 TestScenario.uninfected[28].veinsmobility posy ETV
vector 137 TestScenario.uninfected[26].veinsmobility acceleration ETV
vector 138 TestScenario.uninfected[26].veinsmobility co2emission ETV
vector 139 TestScenario.uninfected[27].veinsmobility speed ETV
vector 140 TestScenario.uninfected[29].veinsmobility posx ETV
vector 141 TestScenario.uninfected[29].veinsmobility posy ETV
vector 142 TestScenario.uninfected[27].veinsmobility acceleration ETV
vector 143 TestScenario.uninfected[27].veinsmobility co2emission ETV
vector 144 TestScenario.uninfected[28].veinsmobility speed ETV
vector 145 TestScenario.uninfected[30].veinsmobility posx ETV
vector 146 TestScenario.uninfected[30].veinsmobility posy ETV
vector 147 TestScenario.uninfected[28].veinsmobility acceleration ETV
vector 148 TestScenario.uninfected[28].veinsmobility co2emission ETV
vector 149 TestScenario.uninfected[29].veinsmobility speed ETV
vector 150 TestScenario.uninfected[31].veinsmobility posx ETV
vector 151 TestScenario.uninfected[31].veinsmobility posy ETV
vector 152 TestScenario.uninfected[29].veinsmobility acceleration ETV
vector 153 TestScenario.uninfected[29].veinsmobility co2emission ETV
vector 154 TestScenario.uninfected[30].veinsmobility speed ETV
vector 155 TestScenario.uninfected[32].veinsmobility posx ETV
vector 156 TestScenario.uninfected[32].veinsmobility posy ETV
vector 157 TestScenario.uninfected[30].veinsmobility acceleration ETV
vector 158 TestScenario.uninfected[30].veinsmobility co2emission ETV
vector 159 TestScenario.uninfected[31].veinsmobility speed ETV
vector 160 TestScenario.uninfected[33].veinsmobility posx ETV
vector 161 TestScenario.uninfected[33].veinsmobility posy ETV
vector 162 TestScenario.uninfected[31].veinsmobility acceleration ETV
vector 163 TestScenario.uninfected[31].veinsmobility co2emission ETV
vector 164 TestScenario.uninfected[32].veinsmobility speed ETV
13	17126 826 71 17096 4 34 31 0.973 8.8891102605953 103.00771166145 492.78845166552
12	17952 902 71 17096 4 34 31 -4.4584823013013 2.0985532370117 9.9740378257375 72.924612125662
9	18854 848 31 17096 3 34 32 3.805675440561 13.884055320274 368.312628557 4595.4234577451
3	19702 694 12 17096 2 34 33 658.17748147903 823.4 26076.75811451 20692909.790108
2	20396 721 12 17096 2 34 33 26.6 211.61882214952 2845.6607677811 410623.75994398
vector 165 TestScenario.uninfected[34].veinsmobility posx ETV
vector 166 TestScenario.uninfected[34].veinsmobility posy ETV
vector 167 TestScenario.uninfected[32].veinsmobility acceleration ETV
vector 168 TestScenario.uninfected[32].veinsmobility co2emission ETV
vector 169 TestScenario.uninfected[33].veinsmobility speed ETV
vector 170 TestScenario.uninfected[35].veinsmobility posx ETV
vector 171 TestScenario.uninfected[35].veinsmobility posy ETV
vector 172 TestScenario.uninfected[33].veinsmobility acceleration ETV
vector 173 TestScenario.uninfected[33].veinsmobility co2emission ETV
vector 174 TestScenario.uninfected[34].veinsmobility speed ETV
vector 175 TestScenario.uninfected[36].veinsmobility posx ETV
vector 176 TestScenario.uninfected[36].veinsmobility posy ETV
vector 177 TestScenario.uninfected[34].veinsmobility acceleration ETV
vector 178 TestScenario.uninfected[34].veinsmobility co2emission ETV
vector 179 TestScenario.uninfected[35].veinsmobility speed ETV
vector 180 TestScenario.uninfected[37].veinsmobility posx ETV
vector 181 TestScenario.uninfected[37].veinsmobility posy ETV
vector 182 TestScenario.uninfected[35].veinsmobility acceleration ETV
vector 183 TestScenario.uninfected[35].veinsmobility co2emission ETV
vector 184 TestScenario.uninfected[36].veinsmobility speed ETV
vector 185 TestScenario.uninfected[38].veinsmobility posx ETV
vector 186 TestScenario.uninfected[38].veinsmobility posy ETV
vector 187 TestScenario.uninfected[36].veinsmobility acceleration ETV
vector 188 TestScenario.uninfected[36].veinsmobility co2emission ETV
vector 189 TestScenario.uninfected[37].veinsmobility speed ETV
123	22772 416 7952 25374 26 39 14 1.7043247179307 8.9240235753903 49.816922927737 250.9397672545
122	23188 442 7952 25374 26 39 14 -0.094352283519694 2.0763844653475 9.6794561018984 18.812494965682
119	23630 445 7172 25374 25 39 15 4.1158313905864 13.889639776004 177.79343124122 2259.5709096489
111	24075 315 6387 25374 24 39 16 823.4 823.4 13174.4 10847800.96
110	24390 472 6387 25374 24 39 16 452.88808255527 611.62701314464 8768.6051546825 4850705.9475503
vector 190 TestScenario.uninfected[39].veinsmobility posx ETV
vector 191 TestScenario.uninfected[39].veinsmobility posy ETV
vector 192 TestScenario.uninfected[37].veinsmobility acceleration ETV
vector 193 TestScenario.uninfected[37].veinsmobility co2emission ETV
vector 194 TestScenario.uninfected[38].veinsmobility speed ETV
10	25193 703 71 27160 4 40 37 205.03807385136 226.6 8345.9596346683 1883153.8797442
11	25896 1008 71 27160 4 40 37 223.4 611.63399887184 15249.550401089 6954563.0275605
15	26904 648 129 27160 5 40 36 426.6 426.6 15357.6 6551552.16
16	27552 1004 129 27160 5 40 36 376.40212644533 811.65841929311 22122.650228432 14280418.357754
19	28556 1006 129 27160 5 40 36 4.1837425248161 13.884159127774 423.44751197145 5348.1042993986
20	29562 651 223 27160 6 40 35 623.4 626.6 21882.441499249 13681264.88563
21	30213 980 223 27160 6 40 35 31.329856620158 211.64598335749 4117.8824169292 616386.64279042
22	31193 1041 223 27160 6 40 35 -3.3532976821603 2.2855131107988 8.6238980720542 62.706584426501
23	32234 949 223 27160 6 40 35 0.973 8.9764796230414 105.378407041 478.92269574792
24	33183 977 223 27160 6 40 35 4.0393522846261 13.886014063652 454.22402770949 6081.3334029226
25	34160 625 318 27160 7 40 34 823.4 826.6 28058.162596916 23154802.791348
26	34785 949 318 27160 7 40 34 230.6812984578 411.64960145386 10762.999749174 3532334.1434038
27	35734 1022 318 27160 7 40 34 -0.10864936022088 2.1338141985494 9.7627495049471 18.937222385232
28	36756 953 318 27160 7 40 34 1.6549564501005 8.0822547659377 90.348482788644 329.41243778298
29	37709 953 318 27160 7 40 34 3.6002955662995 13.873900225542 370.21775823902 4516.4311121869
30	38662 790 434 27160 8 40 33 426.6 611.64810680636 16034.664025651 7955921.6361678
31	39452 755 434 27160 8 40 33 643.48851703936 823.4 25886.901466245 20415144.736905
32	40207 984 434 27160 8 40 33 -3.1867743212126 2.1357271100557 9.8593155584861 66.05309864675
33	41191 872 434 27160 8 40 33 0.973 8.076140285373 104.50004534684 493.48082464142
34	42063 916 434 27160 8 40 33 3.65 13.887267990485 359.48755152548 4377.5305902011
35	42979 794 572 27160 9 40 32 626.6 811.64220992029 22059.482885903 15366180.99353
36	43773 713 572 27160 9 40 32 282.98171565485 423.4 12743.951348582 5132368.6113455
37	44486 946 572 27160 9 40 32 -3.159420828015 2.1576573385298 9.8091981872859 64.799668711815
38	45432 862 572 27160 9 40 32 0.973 8.5452179413821 102.77624109613 498.46409214887
39	46294 902 572 27160 9 40 32 3.7866329477703 13.887499832131 374.29596534316 4667.1271820774
40	47196 696 737 27160 10 40 31 423.4 558.18291029942 13866.804527445 6253838.4977438
41	47892 773 737 27160 10 40 31 438.37394646382 626.6 17400.332463395 9926623.6442276
42	48665 924 737 27160 10 40 31 -4.4338588630337 2.2780713438196 4.0411867720419 82.753802194519
43	49589 836 737 27160 10 40 31 0.973 8.8090550130462 98.152532493166 467.3787405291
44	50425 873 737 27160 10 40 31 3.9024381770133 13.877882378786 342.3714325204 4152.382390919
45	51298 849 918 27160 11 40 30 506.59909780388 811.61667995088 20211.578574838 13884095.217949
46	52147 551 918 27160 11 40 30 623.4 623.4 18702 11658826.8
47	52698 886 918 27160 11 40 30 -3.1322595224311 2.360095183535 9.9437568508242 62.81381134847
48	53584 808 918 27160 11 40 30 0.973 8.3566090274321 99.294997716881 469.36163199871
49	54392 845 918 27160 11 40 30 3.4112935226373 13.886651660271 338.33669732748 4159.765302904
50	55237 818 1117 27160 12 40 29 238.36776095717 419.33184304172 9898.0833725118 3489977.7513074
51	56055 544 1117 27160 12 40 29 823.4 826.6 23941.136313917 19764821.616544
52	56599 865 1117 27160 12 40 29 -3.2541795379146 2.176535610612 9.6753449365404 66.427663094747
53	57464 784 1117 27160 12 40 29 0.973 8.3036721827022 98.186137889344 480.15395829514
54	58248 816 1117 27160 12 40 29 3.876872182942 13.86851549631 323.90714545202 3961.159724694
55	59064 516 1357 27160 13 40 28 623.4 623.4 17455.2 10881571.68
56	59580 794 1357 27160 13 40 28 38.36469348464 363.38925368531 5081.8183955912 1230225.582799
57	60374 836 1357 27160 13 40 28 -3.1379514930521 2.317496298356 9.8923201853365 64.887083029282
58	61210 753 1357 27160 13 40 28 0.973 8.1759909172796 96.059164151476 479.75922350561
59	61963 782 1357 27160 13 40 28 3.65 13.888934111441 289.73965005272 3404.5395493871
60	62745 471 1609 27160 14 40 27 26.6 26.6 718.2 19104.12
61	63216 762 1609 27160 14 40 27 102.89012583293 411.64691181547 7484.4833508549 2345131.613468
62	63978 797 1609 27160 14 40 27 -3.1281808718574 1.9667855461151 9.8277122059125 62.594269626217
63	64775 726 1609 27160 14 40 27 0.973 8.0898980264595 92.183545090209 457.27379368861
64	65501 766 1609 27160 14 40 27 3.9614284594792 13.885565712757 343.85573262756 4556.0710650089
65	66267 738 1875 27160 15 40 26 31.374589783846 211.66772971701 2827.5954567492 419955.52523589
66	67005 500 1875 27160 15 40 26 623.4 626.6 16228.104313689 10128945.349078
67	67505 793 1875 27160 15 40 26 -0.086610918287187 2.1142031355831 9.8312986847882 18.89159909516
68	68298 735 1875 27160 15 40 26 1.729592064948 8.0815698604368 74.238090673277 291.82459756874
69	69033 740 1875 27160 15 40 26 3.8004325452788 13.876337689499 327.91885738755 4326.667100874
70	69773 700 2223 27160 16 40 25 423.4 611.63982373774 12648.534984679 6521657.6668871
71	70473 502 2223 27160 16 40 25 423.4 437.43317522206 10606.42136192 4500062.6248228
72	70975 765 2223 27160 16 40 25 -0.05060978399124 2.0067676474224 10.061015061239 17.946244326093
73	71740 708 2223 27160 16 40 25 1.8515074953641 7.497875880631 72.336771564201 278.21017101686
74	72448 708 2223 27160 16 40 25 3.564096187395 13.879562971592 244.39683781263 2766.7172530581
75	73156 682 2600 27160 17 40 24 340.71072507133 611.61734681937 11864.167289879 6051919.5417751
76	73838 420 2600 27160 17 40 24 23.4 23.4 561.6 13141.44
77	74258 711 2600 27160 17 40 24 -3.1381489724062 2.0930425298284 9.856764141551 63.958944526597
78	74969 632 2600 27160 17 40 24 0.973 8.190138056945 86.065232449426 445.67949535829
79	75601 683 2600 27160 17 40 24 0.51805880690731 13.864879281602 212.65109249628 2370.9482118832
80	76284 464 2982 27160 18 40 23 601.48068165175 623.4 14298.015637554 8889000.3044599
81	76748 631 2982 27160 18 40 23 638.36861228683 823.4 16944.283679907 12593045.819588
82	77379 681 2982 27160 18 40 23 -3.3647129501222 2.3408460009212 6.8035123034156 75.054240268762
83	78060 594 2982 27160 18 40 23 0.973 7.7315957575792 75.977473744907 374.34417566524
84	78654 654 2982 27160 18 40 23 4.2870338742172 13.888224797316 289.89549394846 3816.7382971604
85	79308 596 3450 27160 19 40 22 226.6 411.64985526385 6954.4458823923 2304792.4837127
86	79904 458 3450 27160 19 40 22 793.50506868578 823.4 18052.631770573 14814715.758132
87	80362 670 3450 27160 19 40 22 -0.10241381924599 2.1704131241306 9.5113715423348 18.567129566957
88	81032 626 3450 27160 19 40 22 1.6755186526635 8.0187521693765 65.895337300327 280.55296074846
89	81658 625 3450 27160 19 40 22 3.9475584061126 13.884520370378 221.2652885569 2500.0671281837
90	82283 580 3923 27160 20 40 21 638.35708656023 826.6 15352.575326624 11324394.282989
91	82863 420 3923 27160 20 40 21 810.24209142004 826.6 17332.006558071 14304993.749546
92	83283 620 3923 27160 20 40 21 -3.039489511891 2.292941739611 8.4885337626623 62.992715034279
93	83903 557 3923 27160 20 40 21 0.973 8.3700742689555 76.538109287469 410.90245102541
94	84460 599 3923 27160 20 40 21 3.9395033562485 13.867747633765 230.38476987753 2744.9693522562
95	85059 392 4471 27160 21 40 20 819.56224787523 823.4 16464.045326342 13553253.385432
96	85451 572 4471 27160 21 40 20 238.37094110352 423.14825030354 6503.6769096793 2201202.7444929
97	86023 594 4471 27160 21 40 20 -4.486548833414 2.0075564733613 9.7117043493968 60.035957783499
98	86617 550 4471 27160 21 40 20 0.973 8.596229911566 77.347929787161 424.49873621985
99	87167 571 4471 27160 21 40 20 4.1509726031868 13.877742547421 216.67175223966 2559.7348797186
100	87738 563 5045 27160 22 40 19 238.38625397686 414.62851823885 6059.3879413758 2006919.9717846
101	88301 373 5045 27160 22 40 19 226.6 226.6 4305.4 975603.64
102	88674 583 5045 27160 22 40 19 -4.4464391346521 2.1035161463567 6.7681745993674 53.600557357935
103	89257 533 5045 27160 22 40 19 0.973 8.0785038385085 66.885095930615 337.73449004173
104	89790 561 5045 27160 22 40 19 4.1823363179106 13.886119018339 195.89806999629 2252.7558868903
105	90351 533 5650 27160 23 40 18 439.19136913884 611.66709863037 9650.985999246 5239618.2464295
106	90884 354 5650 27160 23 40 18 623.4 623.4 11221.2 6995296.08
107	91238 556 5650 27160 23 40 18 -3.1284669941968 2.0425128097692 3.5277091937235 47.095291917866
108	91794 498 5650 27160 23 40 18 0.973 7.8535248449056 57.447677639301 271.15671973573
109	92292 531 5650 27160 23 40 18 4.1344470101443 13.829307905487 184.02655012103 2132.4287319119
112	92823 527 6387 27160 24 40 17 -3.1082797916261 2.3109425309999 2.3387141434707 50.719910316551
113	93350 464 6387 27160 24 40 17 0.973 8.0085735630568 54.697198243033 266.44019534356
114	93814 505 6387 27160 24 40 17 2.7105466664563 13.862487124004 176.29488023405 2088.6439897746
115	94319 300 7172 27160 25 40 16 26.6 26.6 425.6 11320.96
116	94619 476 7172 27160 25 40 16 454.35838483371 611.64558947949 8774.718647539 4856972.1545418
117	95095 499 7172 27160 25 40 16 -3.2017794130489 2.1343421720993 -1.3565589582733 50.706359613192
118	95594 434 7172 27160 25 40 16 0.973 8.0510239816697 49.967225877106 245.29507810201
120	96028 282 7952 27160 26 40 15 26.6 26.6 399 10613.4
121	96310 447 7952 27160 26 40 15 67.681237373938 211.62139425341 2324.6251741424 395290.07377658
124	96757 445 7952 27160 26 40 15 4.121810317437 13.886800110687 169.47681663689 2067.8594922951
125	97202 278 8879 27160 27 40 14 226.6 226.6 3172.4 718865.84
126	97480 417 8879 27160 27 40 14 278.80459444559 411.58288457481 5032.0248480024 1836669.8557515
127	97897 436 8879 27160 27 40 14 -3.1633907606892 2.0381433396577 4.1716109062477 33.2539698723
128	98333 398 8879 27160 27 40 14 0.973 7.7414934316218 47.515976470949 232.25162079976
129	98731 415 8879 27160 27 40 14 3.9760906288211 13.889774081798 162.74780539386 2045.2587526231
130	99146 259 9783 27160 28 40 13 426.6 426.6 5545.8 2365838.28
131	99405 388 9783 27160 28 40 13 95.647023210649 211.65766474442 2179.7218809841 385460.36511251
132	99793 407 9783 27160 28 40 13 -0.11353049064986 2.0079764519562 9.8587368732229 18.231755665651
133	100200 388 9783 27160 28 40 13 1.6390252390569 8.4385608793847 47.907681279572 237.14341024937
134	100588 389 9783 27160 28 40 13 4.2827240551382 13.868973644497 151.70737139123 1903.5981752143
135	100977 359 10781 27160 29 40 12 238.34780656187 341.4847032978 3322.4604101652 934578.704107
136	101336 240 10781 27160 29 40 12 626.6 626.6 7519.2 4711530.72
137	101576 378 10781 27160 29 40 12 -0.098439316386358 2.0790518662776 9.5394300192778 18.129957732916
138	101954 357 10781 27160 29 40 12 1.6888266672124 7.8795997101872 45.712639900654 233.67245875837
139	102311 360 10781 27160 29 40 12 3.8640796656667 13.889380110847 135.00726660471 1663.810175032
140	102671 329 11827 27160 30 40 11 322.37503728528 411.63995262118 4168.2510604176 1589560.3178926
141	103000 220 11827 27160 30 40 11 423.4 423.4 4657.4 1971943.16
142	103220 344 11827 27160 30 40 11 -0.085089916421566 1.9999189853668 9.9131200777373 18.887118011309
143	103564 326 11827 27160 30 40 11 1.7336646142096 8.499365253336 43.863658875784 232.59719171882
144	103890 329 11827 27160 30 40 11 3.8256240094134 13.842724142154 122.26670417714 1494.5207900277
145	104219 297 12966 27160 31 40 10 438.36008396157 512.98147919676 4650.9062226257 2169480.8954184
146	104516 200 12966 27160 31 40 10 226.6 226.6 2266 513475.6
147	104716 312 12966 27160 31 40 10 -0.060593727864326 2.1586972981412 9.9827236941846 20.000350559934
148	105028 299 12966 27160 31 40 10 1.8154247515908 8.7527922811233 42.202605265256 237.74136884075
149	105327 299 12966 27160 31 40 10 4.0267832063152 13.883888857865 108.35735474571 1299.4839639804
150	105626 180 14188 27160 32 40 9 623.4 623.4 5610.6 3497648.04
151	105806 268 14188 27160 32 40 9 438.34951609813 499.26378918887 4136.9123499423 1905429.1276603
152	106074 279 14188 27160 32 40 9 -0.085337082142942 2.1275462945015 9.7717685694071 18.84616246339
153	106353 270 14188 27160 32 40 9 1.7345597760951 9.0361647175062 39.798681863307 228.6042457702
154	106623 270 14188 27160 32 40 9 4.0853260210276 13.855860151714 93.553100268121 1086.7286196129
155	106893 240 15574 27160 33 40 8 238.35244132223 285.87857822327 2039.7756710867 522229.66635977
156	107133 160 15574 27160 33 40 8 826.6 826.6 6612.8 5466140.48
157	107293 248 15574 27160 33 40 8 -0.011510107398498 2.0196239904989 9.7538263369674 17.573448700569
158	107541 240 15574 27160 33 40 8 1.9840623837804 8.1167728563281 37.617855147753 213.18067920703
159	107781 239 15574 27160 33 40 8 3.9225065514804 13.80928850814 80.053236360122 904.99933595976
160	108020 140 17096 27160 34 40 7 826.6 826.6 5786.2 4782872.92
161	108160 210 17096 27160 34 40 7 576.33820514967 611.59221256564 4194.6783747621 2514700.4460273
162	108370 212 17096 27160 34 40 7 0.045811726767571 2.1201118186559 9.8867819566597 18.805322110834
163	108582 210 17096 27160 34 40 7 2.1718921753881 8.2301892767729 35.842839089842 216.31825672065
164	108792 209 17096 27160 34 40 7 4.0824178071691 13.883236124318 66.700990667661 720.54109150659
165	109001 179 18688 27160 35 40 6 438.37451770283 462.8975038685 2681.704957068 1199069.0861261
166	109180 114 18688 27160 35 40 6 26.6 26.6 159.6 4245.36
167	109294 180 18688 27160 35 40 6 0.30079511554926 1.9544799111737 9.8008183171485 18.150047337209
168	109474 179 18688 27160 35 40 6 3.0333435538453 8.344624148002 33.857948631155 210.61149130631
169	109653 179 18688 27160 35 40 6 4.0696022958814 13.869774090406 53.364127880129 541.09252218545
170	109832 150 20427 27160 36 40 5 796.77812934137 811.65358453833 4032.3507409928 3252130.8832182
171	109982 100 20427 27160 36 40 5 623.4 623.4 3117 1943137.8
172	110082 150 20427 27160 36 40 5 1.8457443077513 2.1040874143836 9.8001717945241 19.243713275397
173	110232 150 20427 27160 36 40 5 4.2327300879659 9.0587127527792 31.980334806654 219.27755087913
174	110382 149 20427 27160 36 40 5 4.0503513397236 11.865801862693 40.072418775918 359.23874634678
175	110531 80 22007 27160 37 40 4 823.4 823.4 3293.6 2711950.24
176	110611 120 22007 27160 37 40 4 638.36297545614 646.34345634979 2564.4918896209 1644197.241308
177	110731 120 22007 27160 37 40 4 1.8529202224035 2.0830727431388 7.8154505229695 15.305587587075
178	110851 119 22007 27160 37 40 4 4.5062960135431 7.135459717908 23.32711359282 140.4101504549
179	110970 120 22007 27160 37 40 4 3.8275556167678 9.6983812105164 27.075165079913 202.13288774509
180	111090 60 23679 27160 38 40 3 623.4 623.4 1870.2 1165882.68
181	111150 90 23679 27160 38 40 3 38.352020018664 41.444330784756 118.14837082208 4659.3874332203
182	111240 90 23679 27160 38 40 3 1.8073818192212 2.0433675999357 5.8708255937486 11.522687940071
183	111330 90 23679 27160 38 40 3 4.3030523728454 6.3836633995054 15.553444309412 82.952464775083
184	111420 89 23679 27160 38 40 3 3.9311891910371 7.5189216745884 17.222702535419 105.31124619049
185	111509 60 25374 27160 39 40 2 38.374072952422 38.374072952422 76.748145904844 2945.1389499156
186	111569 40 25374 27160 39 40 2 426.6 426.6 853.2 363975.12
187	111609 60 25374 27160 39 40 2 1.7463300047955 1.8414024787559 3.5877324835514 6.4404315744173
188	111669 60 25374 27160 39 40 2 3.9679889022179 4.6764357994497 8.6444247016676 37.613987714499
189	111729 60 25374 27160 39 40 2 3.9493632784271 6.0126749007421 9.9620381791692 51.749729767003
190	111789 30 27160 27160 40 40 1 638.34475076446 638.34475076446 638.34475076446 407484.02082855
191	111819 20 27160 27160 40 40 1 826.6 826.6 826.6 683267.56
192	111839 30 27160 27160 40 40 1 2.0633116223151 2.0633116223151 2.0633116223151 4.2572548507805
193	111869 30 27160 27160 40 40 1 4.4099833020164 4.4099833020164 4.4099833020164 19.447952724063
194	111899 30 27160 27160 40 40 1 4.2251892715629 4.2251892715629 4.2251892715629 17.85222438053

