version 2
run Default-0-20200723-20:26:49-13964
attr configname Default
attr datetime 20200723-20:26:49
attr experiment Default
attr inifile omnetpp.ini
attr iterationvars ""
attr iterationvarsf ""
attr measurement ""
attr network sim1.src.TestScenario
attr processid 13964
attr repetition 0
attr replication #0
attr resultdir results
attr runnumber 0
attr seedset 0
param *.playgroundSizeX 1000m
param *.playgroundSizeY 1000m
param *.playgroundSizeZ 50m
param *.manager.moduleType "\"exploited=org.car2x.veins.nodes.Car *=org.car2x.veins.nodes.Car\""
param *.manager.moduleName "\"exploited=exploited *=uninfected\""
param *.manager.updateInterval 1s
param *.manager.host "\"localhost\""
param *.manager.port 9999
param *.manager.autoShutdown true
param *.manager.launchConfig "xmldoc(\"demo.launchd.xml\")"
param *.connectionManager.sendDirect true
param *.connectionManager.maxInterfDist 300m
param *.connectionManager.drawMaxIntfDist false
param *.**.nic.mac1609_4.useServiceChannel false
param *.**.nic.mac1609_4.txPower 20mW
param *.**.nic.mac1609_4.bitrate 6Mbps
param *.**.nic.phy80211p.sensitivity -89dBm
param *.**.nic.phy80211p.useThermalNoise true
param *.**.nic.phy80211p.thermalNoise -110dBm
param *.**.nic.phy80211p.decider "xmldoc(\"config.xml\")"
param *.**.nic.phy80211p.analogueModels "xmldoc(\"config.xml\")"
param *.**.nic.phy80211p.usePropagationDelay true
param *.**.nic.phy80211p.antenna "xmldoc(\"antenna.xml\", \"/root/Antenna[@id='monopole']\")"
param *.uninfected[*].applType "\"sim1.src.Uninfected\""
param *.uninfected[*].appl.dataPriority 2
param *.uninfected[*].appl.headerLength "80 bit"
param *.uninfected[*].appl.sendBeacons false
param *.uninfected[*].appl.dataOnSch false
param *.uninfected[*].appl.beaconInterval 1s
param *.uninfected[*].veinsmobilityType.debug true
param *.uninfected[*].veinsmobility.x 0
param *.uninfected[*].veinsmobility.y 0
param *.uninfected[*].veinsmobility.z 1.895
param *.uninfected[*0].veinsmobility.accidentCount 1
param *.uninfected[*0].veinsmobility.accidentStart 75s
param *.uninfected[*0].veinsmobility.accidentDuration 50s
param *.exploited[*].applType "\"sim1.src.Exploited\""
param *.exploited[*].appl.dataPriority 2
param *.exploited[*].appl.headerLength "80 bit"
param *.exploited[*].appl.sendBeacons false
param *.exploited[*].appl.dataOnSch false
param *.exploited[*].appl.beaconInterval 1s
param *.exploited[*].veinsmobilityType.debug true
param *.exploited[*].veinsmobility.x 0
param *.exploited[*].veinsmobility.y 0
param *.exploited[*].veinsmobility.z 1.895
param *.exploited[*0].veinsmobility.accidentCount 1
param *.exploited[*0].veinsmobility.accidentStart 75s
param *.exploited[*0].veinsmobility.accidentDuration 50s

scalar TestScenario.uninfected[23].appl generatedWSMs 2
scalar TestScenario.uninfected[23].appl receivedWSMs 0
scalar TestScenario.uninfected[23].appl generatedBSMs 16
scalar TestScenario.uninfected[23].appl receivedBSMs 11
scalar TestScenario.uninfected[23].appl generatedWSAs 0
scalar TestScenario.uninfected[23].appl receivedWSAs 0
scalar TestScenario.uninfected[23].nic.phy80211p busyTime 0.000634
scalar TestScenario.uninfected[23].nic.mac1609_4 ReceivedUnicastPackets 0
scalar TestScenario.uninfected[23].nic.mac1609_4 ReceivedBroadcasts 11
scalar TestScenario.uninfected[23].nic.mac1609_4 SentPackets 18
scalar TestScenario.uninfected[23].nic.mac1609_4 SentAcknowledgements 0
scalar TestScenario.uninfected[23].nic.mac1609_4 SNIRLostPackets 71
scalar TestScenario.uninfected[23].nic.mac1609_4 RXTXLostPackets 78
scalar TestScenario.uninfected[23].nic.mac1609_4 TotalLostPackets 149
scalar TestScenario.uninfected[23].nic.mac1609_4 DroppedPacketsInMac 0
scalar TestScenario.uninfected[23].nic.mac1609_4 TooLittleTime 0
scalar TestScenario.uninfected[23].nic.mac1609_4 TimesIntoBackoff 18
scalar TestScenario.uninfected[23].nic.mac1609_4 SlotsBackoff 23
scalar TestScenario.uninfected[23].nic.mac1609_4 NumInternalContention 0
scalar TestScenario.uninfected[23].nic.mac1609_4 totalBusyTime 0.00601
scalar TestScenario.uninfected[23].veinsmobility startTime 24
scalar TestScenario.uninfected[23].veinsmobility totalTime 15
scalar TestScenario.uninfected[23].veinsmobility stopTime 40
scalar TestScenario.uninfected[23].veinsmobility minSpeed 4.0277950379694
scalar TestScenario.uninfected[23].veinsmobility maxSpeed 13.878134806112
scalar TestScenario.uninfected[23].veinsmobility totalDistance 172.90740923549
scalar TestScenario.uninfected[23].veinsmobility totalCO2Emission 50.054110153398
scalar TestScenario.uninfected[3].appl generatedWSMs 6
scalar TestScenario.uninfected[3].appl receivedWSMs 1
scalar TestScenario.uninfected[3].appl generatedBSMs 46
scalar TestScenario.uninfected[3].appl receivedBSMs 37
scalar TestScenario.uninfected[3].appl generatedWSAs 0
scalar TestScenario.uninfected[3].appl receivedWSAs 0
scalar TestScenario.uninfected[3].nic.phy80211p busyTime 0.0004704347826087
scalar TestScenario.uninfected[3].nic.mac1609_4 ReceivedUnicastPackets 0
scalar TestScenario.uninfected[3].nic.mac1609_4 ReceivedBroadcasts 38
scalar TestScenario.uninfected[3].nic.mac1609_4 SentPackets 52
scalar TestScenario.uninfected[3].nic.mac1609_4 SentAcknowledgements 0
scalar TestScenario.uninfected[3].nic.mac1609_4 SNIRLostPackets 136
scalar TestScenario.uninfected[3].nic.mac1609_4 RXTXLostPackets 178
scalar TestScenario.uninfected[3].nic.mac1609_4 TotalLostPackets 314
scalar TestScenario.uninfected[3].nic.mac1609_4 DroppedPacketsInMac 0
scalar TestScenario.uninfected[3].nic.mac1609_4 TooLittleTime 0
scalar TestScenario.uninfected[3].nic.mac1609_4 TimesIntoBackoff 52
scalar TestScenario.uninfected[3].nic.mac1609_4 SlotsBackoff 81
scalar TestScenario.uninfected[3].nic.mac1609_4 NumInternalContention 0
scalar TestScenario.uninfected[3].nic.mac1609_4 totalBusyTime 0.014948
scalar TestScenario.uninfected[3].veinsmobility startTime 4
scalar TestScenario.uninfected[3].veinsmobility totalTime 45
scalar TestScenario.uninfected[3].veinsmobility stopTime 50
scalar TestScenario.uninfected[3].veinsmobility minSpeed 4.1837425248161
scalar TestScenario.uninfected[3].veinsmobility maxSpeed 13.884277872979
scalar TestScenario.uninfected[3].veinsmobility totalDistance 565.93317171292
scalar TestScenario.uninfected[3].veinsmobility totalCO2Emission 124.16050532846
scalar TestScenario.uninfected[9].appl generatedWSMs 7
scalar TestScenario.uninfected[9].appl receivedWSMs 1
scalar TestScenario.uninfected[9].appl generatedBSMs 50
scalar TestScenario.uninfected[9].appl receivedBSMs 54
scalar TestScenario.uninfected[9].appl generatedWSAs 0
scalar TestScenario.uninfected[9].appl receivedWSAs 0
scalar TestScenario.uninfected[9].nic.phy80211p busyTime 0.00089392
scalar TestScenario.uninfected[9].nic.mac1609_4 ReceivedUnicastPackets 0
scalar TestScenario.uninfected[9].nic.mac1609_4 ReceivedBroadcasts 55
scalar TestScenario.uninfected[9].nic.mac1609_4 SentPackets 57
scalar TestScenario.uninfected[9].nic.mac1609_4 SentAcknowledgements 0
scalar TestScenario.uninfected[9].nic.mac1609_4 SNIRLostPackets 283
scalar TestScenario.uninfected[9].nic.mac1609_4 RXTXLostPackets 333
scalar TestScenario.uninfected[9].nic.mac1609_4 TotalLostPackets 616
scalar TestScenario.uninfected[9].nic.mac1609_4 DroppedPacketsInMac 0
scalar TestScenario.uninfected[9].nic.mac1609_4 TooLittleTime 0
scalar TestScenario.uninfected[9].nic.mac1609_4 TimesIntoBackoff 57
scalar TestScenario.uninfected[9].nic.mac1609_4 SlotsBackoff 81
scalar TestScenario.uninfected[9].nic.mac1609_4 NumInternalContention 0
scalar TestScenario.uninfected[9].nic.mac1609_4 totalBusyTime 0.021553167257
scalar TestScenario.uninfected[9].veinsmobility startTime 10
scalar TestScenario.uninfected[9].veinsmobility totalTime 49
scalar TestScenario.uninfected[9].veinsmobility stopTime 60
scalar TestScenario.uninfected[9].veinsmobility minSpeed 3.5621496864848
scalar TestScenario.uninfected[9].veinsmobility maxSpeed 13.882346863034
scalar TestScenario.uninfected[9].veinsmobility totalDistance 562.60978603917
scalar TestScenario.uninfected[9].veinsmobility totalCO2Emission 152.50643698181
scalar TestScenario.uninfected[13].appl generatedWSMs 7
scalar TestScenario.uninfected[13].appl receivedWSMs 2
scalar TestScenario.uninfected[13].appl generatedBSMs 49
scalar TestScenario.uninfected[13].appl receivedBSMs 42
scalar TestScenario.uninfected[13].appl generatedWSAs 0
scalar TestScenario.uninfected[13].appl receivedWSAs 0
scalar TestScenario.uninfected[13].nic.phy80211p busyTime 0.00024571428571429
scalar TestScenario.uninfected[13].nic.mac1609_4 ReceivedUnicastPackets 0
scalar TestScenario.uninfected[13].nic.mac1609_4 ReceivedBroadcasts 44
scalar TestScenario.uninfected[13].nic.mac1609_4 SentPackets 56
scalar TestScenario.uninfected[13].nic.mac1609_4 SentAcknowledgements 0
scalar TestScenario.uninfected[13].nic.mac1609_4 SNIRLostPackets 55
scalar TestScenario.uninfected[13].nic.mac1609_4 RXTXLostPackets 129
scalar TestScenario.uninfected[13].nic.mac1609_4 TotalLostPackets 184
scalar TestScenario.uninfected[13].nic.mac1609_4 DroppedPacketsInMac 0
scalar TestScenario.uninfected[13].nic.mac1609_4 TooLittleTime 0
scalar TestScenario.uninfected[13].nic.mac1609_4 TimesIntoBackoff 56
scalar TestScenario.uninfected[13].nic.mac1609_4 SlotsBackoff 91
scalar TestScenario.uninfected[13].nic.mac1609_4 NumInternalContention 0
scalar TestScenario.uninfected[13].nic.mac1609_4 totalBusyTime 0.014432055335
scalar TestScenario.uninfected[13].veinsmobility startTime 14
scalar TestScenario.uninfected[13].veinsmobility totalTime 48
scalar TestScenario.uninfected[13].veinsmobility stopTime 63
scalar TestScenario.uninfected[13].veinsmobility minSpeed 3.8004325452788
scalar TestScenario.uninfected[13].veinsmobility maxSpeed 13.889763465817
scalar TestScenario.uninfected[13].veinsmobility totalDistance 571.99503387855
scalar TestScenario.uninfected[13].veinsmobility totalCO2Emission 133.54230809909
scalar TestScenario.uninfected[0].appl generatedWSMs 9
scalar TestScenario.uninfected[0].appl receivedWSMs 1
scalar TestScenario.uninfected[0].appl generatedBSMs 62
scalar TestScenario.uninfected[0].appl receivedBSMs 42
scalar TestScenario.uninfected[0].appl generatedWSAs 0
scalar TestScenario.uninfected[0].appl receivedWSAs 0
scalar TestScenario.uninfected[0].nic.phy80211p busyTime 0.00030064516129032
scalar TestScenario.uninfected[0].nic.mac1609_4 ReceivedUnicastPackets 0
scalar TestScenario.uninfected[0].nic.mac1609_4 ReceivedBroadcasts 43
scalar TestScenario.uninfected[0].nic.mac1609_4 SentPackets 71
scalar TestScenario.uninfected[0].nic.mac1609_4 SentAcknowledgements 0
scalar TestScenario.uninfected[0].nic.mac1609_4 SNIRLostPackets 116
scalar TestScenario.uninfected[0].nic.mac1609_4 RXTXLostPackets 148
scalar TestScenario.uninfected[0].nic.mac1609_4 TotalLostPackets 264
scalar TestScenario.uninfected[0].nic.mac1609_4 DroppedPacketsInMac 0
scalar TestScenario.uninfected[0].nic.mac1609_4 TooLittleTime 0
scalar TestScenario.uninfected[0].nic.mac1609_4 TimesIntoBackoff 71
scalar TestScenario.uninfected[0].nic.mac1609_4 SlotsBackoff 115
scalar TestScenario.uninfected[0].nic.mac1609_4 NumInternalContention 0
scalar TestScenario.uninfected[0].nic.mac1609_4 totalBusyTime 0.017151
scalar TestScenario.uninfected[0].veinsmobility startTime 1
scalar TestScenario.uninfected[0].veinsmobility totalTime 61
scalar TestScenario.uninfected[0].veinsmobility stopTime 63
scalar TestScenario.uninfected[0].veinsmobility minSpeed 3.722822103166
scalar TestScenario.uninfected[0].veinsmobility maxSpeed 13.883749884022
scalar TestScenario.uninfected[0].veinsmobility totalDistance 763.38022482497
scalar TestScenario.uninfected[0].veinsmobility totalCO2Emission 161.49971078741
scalar TestScenario.uninfected[16].appl generatedWSMs 6
scalar TestScenario.uninfected[16].appl receivedWSMs 2
scalar TestScenario.uninfected[16].appl generatedBSMs 47
scalar TestScenario.uninfected[16].appl receivedBSMs 53
scalar TestScenario.uninfected[16].appl generatedWSAs 0
scalar TestScenario.uninfected[16].appl receivedWSAs 0
scalar TestScenario.uninfected[16].nic.phy80211p busyTime 0.00049259574468085
scalar TestScenario.uninfected[16].nic.mac1609_4 ReceivedUnicastPackets 0
scalar TestScenario.uninfected[16].nic.mac1609_4 ReceivedBroadcasts 55
scalar TestScenario.uninfected[16].nic.mac1609_4 SentPackets 53
scalar TestScenario.uninfected[16].nic.mac1609_4 SentAcknowledgements 0
scalar TestScenario.uninfected[16].nic.mac1609_4 SNIRLostPackets 137
scalar TestScenario.uninfected[16].nic.mac1609_4 RXTXLostPackets 207
scalar TestScenario.uninfected[16].nic.mac1609_4 TotalLostPackets 344
scalar TestScenario.uninfected[16].nic.mac1609_4 DroppedPacketsInMac 0
scalar TestScenario.uninfected[16].nic.mac1609_4 TooLittleTime 0
scalar TestScenario.uninfected[16].nic.mac1609_4 TimesIntoBackoff 53
scalar TestScenario.uninfected[16].nic.mac1609_4 SlotsBackoff 81
scalar TestScenario.uninfected[16].nic.mac1609_4 NumInternalContention 0
scalar TestScenario.uninfected[16].nic.mac1609_4 totalBusyTime 0.017213162883
scalar TestScenario.uninfected[16].veinsmobility startTime 17
scalar TestScenario.uninfected[16].veinsmobility totalTime 46
scalar TestScenario.uninfected[16].veinsmobility stopTime 64
scalar TestScenario.uninfected[16].veinsmobility minSpeed 4.1265234313304
scalar TestScenario.uninfected[16].veinsmobility maxSpeed 13.885444280603
scalar TestScenario.uninfected[16].veinsmobility totalDistance 574.32771546758
scalar TestScenario.uninfected[16].veinsmobility totalCO2Emission 128.70774387096
scalar TestScenario.uninfected[2].appl generatedWSMs 11
scalar TestScenario.uninfected[2].appl receivedWSMs 3
scalar TestScenario.uninfected[2].appl generatedBSMs 67
scalar TestScenario.uninfected[2].appl receivedBSMs 64
scalar TestScenario.uninfected[2].appl generatedWSAs 0
scalar TestScenario.uninfected[2].appl receivedWSAs 0
scalar TestScenario.uninfected[2].nic.phy80211p busyTime 0.00072608955223881
scalar TestScenario.uninfected[2].nic.mac1609_4 ReceivedUnicastPackets 0
scalar TestScenario.uninfected[2].nic.mac1609_4 ReceivedBroadcasts 67
scalar TestScenario.uninfected[2].nic.mac1609_4 SentPackets 78
scalar TestScenario.uninfected[2].nic.mac1609_4 SentAcknowledgements 0
scalar TestScenario.uninfected[2].nic.mac1609_4 SNIRLostPackets 316
scalar TestScenario.uninfected[2].nic.mac1609_4 RXTXLostPackets 356
scalar TestScenario.uninfected[2].nic.mac1609_4 TotalLostPackets 672
scalar TestScenario.uninfected[2].nic.mac1609_4 DroppedPacketsInMac 0
scalar TestScenario.uninfected[2].nic.mac1609_4 TooLittleTime 0
scalar TestScenario.uninfected[2].nic.mac1609_4 TimesIntoBackoff 78
scalar TestScenario.uninfected[2].nic.mac1609_4 SlotsBackoff 103
scalar TestScenario.uninfected[2].nic.mac1609_4 NumInternalContention 0
scalar TestScenario.uninfected[2].nic.mac1609_4 totalBusyTime 0.026143945781
scalar TestScenario.uninfected[2].veinsmobility startTime 3
scalar TestScenario.uninfected[2].veinsmobility totalTime 66
scalar TestScenario.uninfected[2].veinsmobility stopTime 70
scalar TestScenario.uninfected[2].veinsmobility minSpeed 3.3208015908294
scalar TestScenario.uninfected[2].veinsmobility maxSpeed 13.887312619174
scalar TestScenario.uninfected[2].veinsmobility totalDistance 758.20099141284
scalar TestScenario.uninfected[2].veinsmobility totalCO2Emission 205.03575822257
scalar TestScenario.uninfected[5].appl generatedWSMs 10
scalar TestScenario.uninfected[5].appl receivedWSMs 0
scalar TestScenario.uninfected[5].appl generatedBSMs 66
scalar TestScenario.uninfected[5].appl receivedBSMs 68
scalar TestScenario.uninfected[5].appl generatedWSAs 0
scalar TestScenario.uninfected[5].appl receivedWSAs 0
scalar TestScenario.uninfected[5].nic.phy80211p busyTime 0.00077624242424242
scalar TestScenario.uninfected[5].nic.mac1609_4 ReceivedUnicastPackets 0
scalar TestScenario.uninfected[5].nic.mac1609_4 ReceivedBroadcasts 68
scalar TestScenario.uninfected[5].nic.mac1609_4 SentPackets 76
scalar TestScenario.uninfected[5].nic.mac1609_4 SentAcknowledgements 0
scalar TestScenario.uninfected[5].nic.mac1609_4 SNIRLostPackets 350
scalar TestScenario.uninfected[5].nic.mac1609_4 RXTXLostPackets 349
scalar TestScenario.uninfected[5].nic.mac1609_4 TotalLostPackets 699
scalar TestScenario.uninfected[5].nic.mac1609_4 DroppedPacketsInMac 0
scalar TestScenario.uninfected[5].nic.mac1609_4 TooLittleTime 0
scalar TestScenario.uninfected[5].nic.mac1609_4 TimesIntoBackoff 76
scalar TestScenario.uninfected[5].nic.mac1609_4 SlotsBackoff 118
scalar TestScenario.uninfected[5].nic.mac1609_4 NumInternalContention 0
scalar TestScenario.uninfected[5].nic.mac1609_4 totalBusyTime 0.025398464155
scalar TestScenario.uninfected[5].veinsmobility startTime 6
scalar TestScenario.uninfected[5].veinsmobility totalTime 65
scalar TestScenario.uninfected[5].veinsmobility stopTime 72
scalar TestScenario.uninfected[5].veinsmobility minSpeed 3.5229142080061
scalar TestScenario.uninfected[5].veinsmobility maxSpeed 13.888838232881
scalar TestScenario.uninfected[5].veinsmobility totalDistance 767.30235204596
scalar TestScenario.uninfected[5].veinsmobility totalCO2Emission 180.94228025818
scalar TestScenario.uninfected[24].appl generatedWSMs 8
scalar TestScenario.uninfected[24].appl receivedWSMs 2
scalar TestScenario.uninfected[24].appl generatedBSMs 49
scalar TestScenario.uninfected[24].appl receivedBSMs 45
scalar TestScenario.uninfected[24].appl generatedWSAs 0
scalar TestScenario.uninfected[24].appl receivedWSAs 0
scalar TestScenario.uninfected[24].nic.phy80211p busyTime 0.00053795918367347
scalar TestScenario.uninfected[24].nic.mac1609_4 ReceivedUnicastPackets 0
scalar TestScenario.uninfected[24].nic.mac1609_4 ReceivedBroadcasts 47
scalar TestScenario.uninfected[24].nic.mac1609_4 SentPackets 57
scalar TestScenario.uninfected[24].nic.mac1609_4 SentAcknowledgements 0
scalar TestScenario.uninfected[24].nic.mac1609_4 SNIRLostPackets 163
scalar TestScenario.uninfected[24].nic.mac1609_4 RXTXLostPackets 195
scalar TestScenario.uninfected[24].nic.mac1609_4 TotalLostPackets 358
scalar TestScenario.uninfected[24].nic.mac1609_4 DroppedPacketsInMac 0
scalar TestScenario.uninfected[24].nic.mac1609_4 TooLittleTime 0
scalar TestScenario.uninfected[24].nic.mac1609_4 TimesIntoBackoff 57
scalar TestScenario.uninfected[24].nic.mac1609_4 SlotsBackoff 90
scalar TestScenario.uninfected[24].nic.mac1609_4 NumInternalContention 0
scalar TestScenario.uninfected[24].nic.mac1609_4 totalBusyTime 0.017969070872
scalar TestScenario.uninfected[24].veinsmobility startTime 25
scalar TestScenario.uninfected[24].veinsmobility totalTime 48
scalar TestScenario.uninfected[24].veinsmobility stopTime 74
scalar TestScenario.uninfected[24].veinsmobility minSpeed 3.5045357730956
scalar TestScenario.uninfected[24].veinsmobility maxSpeed 13.887267420811
scalar TestScenario.uninfected[24].veinsmobility totalDistance 563.10438016317
scalar TestScenario.uninfected[24].veinsmobility totalCO2Emission 133.69084973329
scalar TestScenario.uninfected[12].appl generatedWSMs 8
scalar TestScenario.uninfected[12].appl receivedWSMs 3
scalar TestScenario.uninfected[12].appl generatedBSMs 62
scalar TestScenario.uninfected[12].appl receivedBSMs 90
scalar TestScenario.uninfected[12].appl generatedWSAs 0
scalar TestScenario.uninfected[12].appl receivedWSAs 0
scalar TestScenario.uninfected[12].nic.phy80211p busyTime 0.00097845161290323
scalar TestScenario.uninfected[12].nic.mac1609_4 ReceivedUnicastPackets 0
scalar TestScenario.uninfected[12].nic.mac1609_4 ReceivedBroadcasts 93
scalar TestScenario.uninfected[12].nic.mac1609_4 SentPackets 70
scalar TestScenario.uninfected[12].nic.mac1609_4 SentAcknowledgements 0
scalar TestScenario.uninfected[12].nic.mac1609_4 SNIRLostPackets 392
scalar TestScenario.uninfected[12].nic.mac1609_4 RXTXLostPackets 430
scalar TestScenario.uninfected[12].nic.mac1609_4 TotalLostPackets 822
scalar TestScenario.uninfected[12].nic.mac1609_4 DroppedPacketsInMac 0
scalar TestScenario.uninfected[12].nic.mac1609_4 TooLittleTime 0
scalar TestScenario.uninfected[12].nic.mac1609_4 TimesIntoBackoff 70
scalar TestScenario.uninfected[12].nic.mac1609_4 SlotsBackoff 95
scalar TestScenario.uninfected[12].nic.mac1609_4 NumInternalContention 0
scalar TestScenario.uninfected[12].nic.mac1609_4 totalBusyTime 0.028337969234
scalar TestScenario.uninfected[12].veinsmobility startTime 13
scalar TestScenario.uninfected[12].veinsmobility totalTime 61
scalar TestScenario.uninfected[12].veinsmobility stopTime 75
scalar TestScenario.uninfected[12].veinsmobility minSpeed 3.9614284594792
scalar TestScenario.uninfected[12].veinsmobility maxSpeed 13.889054601928
scalar TestScenario.uninfected[12].veinsmobility totalDistance 768.4150584555
scalar TestScenario.uninfected[12].veinsmobility totalCO2Emission 161.4611955558
scalar TestScenario.uninfected[11].appl generatedWSMs 11
scalar TestScenario.uninfected[11].appl receivedWSMs 3
scalar TestScenario.uninfected[11].appl generatedBSMs 65
scalar TestScenario.uninfected[11].appl receivedBSMs 69
scalar TestScenario.uninfected[11].appl generatedWSAs 0
scalar TestScenario.uninfected[11].appl receivedWSAs 0
scalar TestScenario.uninfected[11].nic.phy80211p busyTime 0.00093649230769231
scalar TestScenario.uninfected[11].nic.mac1609_4 ReceivedUnicastPackets 0
scalar TestScenario.uninfected[11].nic.mac1609_4 ReceivedBroadcasts 72
scalar TestScenario.uninfected[11].nic.mac1609_4 SentPackets 76
scalar TestScenario.uninfected[11].nic.mac1609_4 SentAcknowledgements 0
scalar TestScenario.uninfected[11].nic.mac1609_4 SNIRLostPackets 415
scalar TestScenario.uninfected[11].nic.mac1609_4 RXTXLostPackets 432
scalar TestScenario.uninfected[11].nic.mac1609_4 TotalLostPackets 847
scalar TestScenario.uninfected[11].nic.mac1609_4 DroppedPacketsInMac 0
scalar TestScenario.uninfected[11].nic.mac1609_4 TooLittleTime 0
scalar TestScenario.uninfected[11].nic.mac1609_4 TimesIntoBackoff 76
scalar TestScenario.uninfected[11].nic.mac1609_4 SlotsBackoff 122
scalar TestScenario.uninfected[11].nic.mac1609_4 NumInternalContention 0
scalar TestScenario.uninfected[11].nic.mac1609_4 totalBusyTime 0.028779032487
scalar TestScenario.uninfected[11].veinsmobility startTime 12
scalar TestScenario.uninfected[11].veinsmobility totalTime 64
scalar TestScenario.uninfected[11].veinsmobility stopTime 77
scalar TestScenario.uninfected[11].veinsmobility minSpeed 3.5885107131671
scalar TestScenario.uninfected[11].veinsmobility maxSpeed 13.8882083526
scalar TestScenario.uninfected[11].veinsmobility totalDistance 756.02142241369
scalar TestScenario.uninfected[11].veinsmobility totalCO2Emission 182.05501382425
scalar TestScenario.uninfected[8].appl generatedWSMs 14
scalar TestScenario.uninfected[8].appl receivedWSMs 2
scalar TestScenario.uninfected[8].appl generatedBSMs 69
scalar TestScenario.uninfected[8].appl receivedBSMs 79
scalar TestScenario.uninfected[8].appl generatedWSAs 0
scalar TestScenario.uninfected[8].appl receivedWSAs 0
scalar TestScenario.uninfected[8].nic.phy80211p busyTime 0.00067605797101449
scalar TestScenario.uninfected[8].nic.mac1609_4 ReceivedUnicastPackets 0
scalar TestScenario.uninfected[8].nic.mac1609_4 ReceivedBroadcasts 81
scalar TestScenario.uninfected[8].nic.mac1609_4 SentPackets 83
scalar TestScenario.uninfected[8].nic.mac1609_4 SentAcknowledgements 0
scalar TestScenario.uninfected[8].nic.mac1609_4 SNIRLostPackets 308
scalar TestScenario.uninfected[8].nic.mac1609_4 RXTXLostPackets 381
scalar TestScenario.uninfected[8].nic.mac1609_4 TotalLostPackets 689
scalar TestScenario.uninfected[8].nic.mac1609_4 DroppedPacketsInMac 0
scalar TestScenario.uninfected[8].nic.mac1609_4 TooLittleTime 0
scalar TestScenario.uninfected[8].nic.mac1609_4 TimesIntoBackoff 83
scalar TestScenario.uninfected[8].nic.mac1609_4 SlotsBackoff 118
scalar TestScenario.uninfected[8].nic.mac1609_4 NumInternalContention 0
scalar TestScenario.uninfected[8].nic.mac1609_4 totalBusyTime 0.028720504981
scalar TestScenario.uninfected[8].veinsmobility startTime 9
scalar TestScenario.uninfected[8].veinsmobility totalTime 68
scalar TestScenario.uninfected[8].veinsmobility stopTime 78
scalar TestScenario.uninfected[8].veinsmobility minSpeed 1.8075073087567
scalar TestScenario.uninfected[8].veinsmobility maxSpeed 13.88813461059
scalar TestScenario.uninfected[8].veinsmobility totalDistance 770.79666154939
scalar TestScenario.uninfected[8].veinsmobility totalCO2Emission 182.47011826
scalar TestScenario.uninfected[10].appl generatedWSMs 12
scalar TestScenario.uninfected[10].appl receivedWSMs 1
scalar TestScenario.uninfected[10].appl generatedBSMs 68
scalar TestScenario.uninfected[10].appl receivedBSMs 78
scalar TestScenario.uninfected[10].appl generatedWSAs 0
scalar TestScenario.uninfected[10].appl receivedWSAs 0
scalar TestScenario.uninfected[10].nic.phy80211p busyTime 0.0011843529411765
scalar TestScenario.uninfected[10].nic.mac1609_4 ReceivedUnicastPackets 0
scalar TestScenario.uninfected[10].nic.mac1609_4 ReceivedBroadcasts 79
scalar TestScenario.uninfected[10].nic.mac1609_4 SentPackets 80
scalar TestScenario.uninfected[10].nic.mac1609_4 SentAcknowledgements 0
scalar TestScenario.uninfected[10].nic.mac1609_4 SNIRLostPackets 560
scalar TestScenario.uninfected[10].nic.mac1609_4 RXTXLostPackets 485
scalar TestScenario.uninfected[10].nic.mac1609_4 TotalLostPackets 1045
scalar TestScenario.uninfected[10].nic.mac1609_4 DroppedPacketsInMac 0
scalar TestScenario.uninfected[10].nic.mac1609_4 TooLittleTime 0
scalar TestScenario.uninfected[10].nic.mac1609_4 TimesIntoBackoff 80
scalar TestScenario.uninfected[10].nic.mac1609_4 SlotsBackoff 119
scalar TestScenario.uninfected[10].nic.mac1609_4 NumInternalContention 0
scalar TestScenario.uninfected[10].nic.mac1609_4 totalBusyTime 0.031497592806
scalar TestScenario.uninfected[10].veinsmobility startTime 11
scalar TestScenario.uninfected[10].veinsmobility totalTime 67
scalar TestScenario.uninfected[10].veinsmobility stopTime 79
scalar TestScenario.uninfected[10].veinsmobility minSpeed 3.7103810171622
scalar TestScenario.uninfected[10].veinsmobility maxSpeed 13.889966999968
scalar TestScenario.uninfected[10].veinsmobility totalDistance 760.16016049315
scalar TestScenario.uninfected[10].veinsmobility totalCO2Emission 208.67867749739
scalar TestScenario.uninfected[68].appl generatedWSMs 2
scalar TestScenario.uninfected[68].appl receivedWSMs 0
scalar TestScenario.uninfected[68].appl generatedBSMs 16
scalar TestScenario.uninfected[68].appl receivedBSMs 21
scalar TestScenario.uninfected[68].appl generatedWSAs 0
scalar TestScenario.uninfected[68].appl receivedWSAs 0
scalar TestScenario.uninfected[68].nic.phy80211p busyTime 0.000516
scalar TestScenario.uninfected[68].nic.mac1609_4 ReceivedUnicastPackets 0
scalar TestScenario.uninfected[68].nic.mac1609_4 ReceivedBroadcasts 21
scalar TestScenario.uninfected[68].nic.mac1609_4 SentPackets 18
scalar TestScenario.uninfected[68].nic.mac1609_4 SentAcknowledgements 0
scalar TestScenario.uninfected[68].nic.mac1609_4 SNIRLostPackets 51
scalar TestScenario.uninfected[68].nic.mac1609_4 RXTXLostPackets 104
scalar TestScenario.uninfected[68].nic.mac1609_4 TotalLostPackets 155
scalar TestScenario.uninfected[68].nic.mac1609_4 DroppedPacketsInMac 0
scalar TestScenario.uninfected[68].nic.mac1609_4 TooLittleTime 0
scalar TestScenario.uninfected[68].nic.mac1609_4 TimesIntoBackoff 18
scalar TestScenario.uninfected[68].nic.mac1609_4 SlotsBackoff 30
scalar TestScenario.uninfected[68].nic.mac1609_4 NumInternalContention 0
scalar TestScenario.uninfected[68].nic.mac1609_4 totalBusyTime 0.00669
scalar TestScenario.uninfected[68].veinsmobility startTime 69
scalar TestScenario.uninfected[68].veinsmobility totalTime 15
scalar TestScenario.uninfected[68].veinsmobility stopTime 85
scalar TestScenario.uninfected[68].veinsmobility minSpeed 3.9777942875928
scalar TestScenario.uninfected[68].veinsmobility maxSpeed 13.874615608731
scalar TestScenario.uninfected[68].veinsmobility totalDistance 173.98719138638
scalar TestScenario.uninfected[68].veinsmobility totalCO2Emission 50.12816972816
scalar TestScenario.uninfected[4].appl generatedWSMs 13
scalar TestScenario.uninfected[4].appl receivedWSMs 1
scalar TestScenario.uninfected[4].appl generatedBSMs 80
scalar TestScenario.uninfected[4].appl receivedBSMs 89
scalar TestScenario.uninfected[4].appl generatedWSAs 0
scalar TestScenario.uninfected[4].appl receivedWSAs 0
scalar TestScenario.uninfected[4].nic.phy80211p busyTime 0.001343
scalar TestScenario.uninfected[4].nic.mac1609_4 ReceivedUnicastPackets 0
scalar TestScenario.uninfected[4].nic.mac1609_4 ReceivedBroadcasts 90
scalar TestScenario.uninfected[4].nic.mac1609_4 SentPackets 93
scalar TestScenario.uninfected[4].nic.mac1609_4 SentAcknowledgements 0
scalar TestScenario.uninfected[4].nic.mac1609_4 SNIRLostPackets 743
scalar TestScenario.uninfected[4].nic.mac1609_4 RXTXLostPackets 614
scalar TestScenario.uninfected[4].nic.mac1609_4 TotalLostPackets 1357
scalar TestScenario.uninfected[4].nic.mac1609_4 DroppedPacketsInMac 0
scalar TestScenario.uninfected[4].nic.mac1609_4 TooLittleTime 0
scalar TestScenario.uninfected[4].nic.mac1609_4 TimesIntoBackoff 93
scalar TestScenario.uninfected[4].nic.mac1609_4 SlotsBackoff 154
scalar TestScenario.uninfected[4].nic.mac1609_4 NumInternalContention 0
scalar TestScenario.uninfected[4].nic.mac1609_4 totalBusyTime 0.038856250122
scalar TestScenario.uninfected[4].veinsmobility startTime 5
scalar TestScenario.uninfected[4].veinsmobility totalTime 79
scalar TestScenario.uninfected[4].veinsmobility stopTime 85
scalar TestScenario.uninfected[4].veinsmobility minSpeed 2.4302442712521
scalar TestScenario.uninfected[4].veinsmobility maxSpeed 13.885657052209
scalar TestScenario.uninfected[4].veinsmobility totalDistance 956.56225858835
scalar TestScenario.uninfected[4].veinsmobility totalCO2Emission 230.7766567467
scalar TestScenario.uninfected[21].appl generatedWSMs 12
scalar TestScenario.uninfected[21].appl receivedWSMs 2
scalar TestScenario.uninfected[21].appl generatedBSMs 66
scalar TestScenario.uninfected[21].appl receivedBSMs 68
scalar TestScenario.uninfected[21].appl generatedWSAs 0
scalar TestScenario.uninfected[21].appl receivedWSAs 0
scalar TestScenario.uninfected[21].nic.phy80211p busyTime 0.00074278787878788
scalar TestScenario.uninfected[21].nic.mac1609_4 ReceivedUnicastPackets 0
scalar TestScenario.uninfected[21].nic.mac1609_4 ReceivedBroadcasts 70
scalar TestScenario.uninfected[21].nic.mac1609_4 SentPackets 78
scalar TestScenario.uninfected[21].nic.mac1609_4 SentAcknowledgements 0
scalar TestScenario.uninfected[21].nic.mac1609_4 SNIRLostPackets 335
scalar TestScenario.uninfected[21].nic.mac1609_4 RXTXLostPackets 389
scalar TestScenario.uninfected[21].nic.mac1609_4 TotalLostPackets 724
scalar TestScenario.uninfected[21].nic.mac1609_4 DroppedPacketsInMac 0
scalar TestScenario.uninfected[21].nic.mac1609_4 TooLittleTime 0
scalar TestScenario.uninfected[21].nic.mac1609_4 TimesIntoBackoff 78
scalar TestScenario.uninfected[21].nic.mac1609_4 SlotsBackoff 117
scalar TestScenario.uninfected[21].nic.mac1609_4 NumInternalContention 0
scalar TestScenario.uninfected[21].nic.mac1609_4 totalBusyTime 0.027574362537
scalar TestScenario.uninfected[21].veinsmobility startTime 22
scalar TestScenario.uninfected[21].veinsmobility totalTime 65
scalar TestScenario.uninfected[21].veinsmobility stopTime 88
scalar TestScenario.uninfected[21].veinsmobility minSpeed 3.8712742081177
scalar TestScenario.uninfected[21].veinsmobility maxSpeed 13.889317078406
scalar TestScenario.uninfected[21].veinsmobility totalDistance 769.2455283394
scalar TestScenario.uninfected[21].veinsmobility totalCO2Emission 185.73691460525
scalar TestScenario.uninfected[55].appl generatedWSMs 4
scalar TestScenario.uninfected[55].appl receivedWSMs 1
scalar TestScenario.uninfected[55].appl generatedBSMs 33
scalar TestScenario.uninfected[55].appl receivedBSMs 43
scalar TestScenario.uninfected[55].appl generatedWSAs 0
scalar TestScenario.uninfected[55].appl receivedWSAs 0
scalar TestScenario.uninfected[55].nic.phy80211p busyTime 0.00091684848484848
scalar TestScenario.uninfected[55].nic.mac1609_4 ReceivedUnicastPackets 0
scalar TestScenario.uninfected[55].nic.mac1609_4 ReceivedBroadcasts 44
scalar TestScenario.uninfected[55].nic.mac1609_4 SentPackets 37
scalar TestScenario.uninfected[55].nic.mac1609_4 SentAcknowledgements 0
scalar TestScenario.uninfected[55].nic.mac1609_4 SNIRLostPackets 207
scalar TestScenario.uninfected[55].nic.mac1609_4 RXTXLostPackets 209
scalar TestScenario.uninfected[55].nic.mac1609_4 TotalLostPackets 416
scalar TestScenario.uninfected[55].nic.mac1609_4 DroppedPacketsInMac 0
scalar TestScenario.uninfected[55].nic.mac1609_4 TooLittleTime 0
scalar TestScenario.uninfected[55].nic.mac1609_4 TimesIntoBackoff 37
scalar TestScenario.uninfected[55].nic.mac1609_4 SlotsBackoff 65
scalar TestScenario.uninfected[55].nic.mac1609_4 NumInternalContention 0
scalar TestScenario.uninfected[55].nic.mac1609_4 totalBusyTime 0.015013258205
scalar TestScenario.uninfected[55].veinsmobility startTime 57
scalar TestScenario.uninfected[55].veinsmobility totalTime 32
scalar TestScenario.uninfected[55].veinsmobility stopTime 90
scalar TestScenario.uninfected[55].veinsmobility minSpeed 3.1932960020477
scalar TestScenario.uninfected[55].veinsmobility maxSpeed 13.888910891963
scalar TestScenario.uninfected[55].veinsmobility totalDistance 369.05469526853
scalar TestScenario.uninfected[55].veinsmobility totalCO2Emission 98.849981901313
scalar TestScenario.uninfected[76].appl generatedWSMs 2
scalar TestScenario.uninfected[76].appl receivedWSMs 1
scalar TestScenario.uninfected[76].appl generatedBSMs 16
scalar TestScenario.uninfected[76].appl receivedBSMs 18
scalar TestScenario.uninfected[76].appl generatedWSAs 0
scalar TestScenario.uninfected[76].appl receivedWSAs 0
scalar TestScenario.uninfected[76].nic.phy80211p busyTime 0.0007375
scalar TestScenario.uninfected[76].nic.mac1609_4 ReceivedUnicastPackets 0
scalar TestScenario.uninfected[76].nic.mac1609_4 ReceivedBroadcasts 19
scalar TestScenario.uninfected[76].nic.mac1609_4 SentPackets 18
scalar TestScenario.uninfected[76].nic.mac1609_4 SentAcknowledgements 0
scalar TestScenario.uninfected[76].nic.mac1609_4 SNIRLostPackets 74
scalar TestScenario.uninfected[76].nic.mac1609_4 RXTXLostPackets 96
scalar TestScenario.uninfected[76].nic.mac1609_4 TotalLostPackets 170
scalar TestScenario.uninfected[76].nic.mac1609_4 DroppedPacketsInMac 0
scalar TestScenario.uninfected[76].nic.mac1609_4 TooLittleTime 0
scalar TestScenario.uninfected[76].nic.mac1609_4 TimesIntoBackoff 18
scalar TestScenario.uninfected[76].nic.mac1609_4 SlotsBackoff 30
scalar TestScenario.uninfected[76].nic.mac1609_4 NumInternalContention 0
scalar TestScenario.uninfected[76].nic.mac1609_4 totalBusyTime 0.007154049223
scalar TestScenario.uninfected[76].veinsmobility startTime 77
scalar TestScenario.uninfected[76].veinsmobility totalTime 15
scalar TestScenario.uninfected[76].veinsmobility stopTime 93
scalar TestScenario.uninfected[76].veinsmobility minSpeed 4.1240932113043
scalar TestScenario.uninfected[76].veinsmobility maxSpeed 13.878655497397
scalar TestScenario.uninfected[76].veinsmobility totalDistance 173.72253630784
scalar TestScenario.uninfected[76].veinsmobility totalCO2Emission 50.189756919354
scalar TestScenario.uninfected[42].appl generatedWSMs 8
scalar TestScenario.uninfected[42].appl receivedWSMs 0
scalar TestScenario.uninfected[42].appl generatedBSMs 51
scalar TestScenario.uninfected[42].appl receivedBSMs 85
scalar TestScenario.uninfected[42].appl generatedWSAs 0
scalar TestScenario.uninfected[42].appl receivedWSAs 0
scalar TestScenario.uninfected[42].nic.phy80211p busyTime 0.0016770196078432
scalar TestScenario.uninfected[42].nic.mac1609_4 ReceivedUnicastPackets 0
scalar TestScenario.uninfected[42].nic.mac1609_4 ReceivedBroadcasts 85
scalar TestScenario.uninfected[42].nic.mac1609_4 SentPackets 59
scalar TestScenario.uninfected[42].nic.mac1609_4 SentAcknowledgements 0
scalar TestScenario.uninfected[42].nic.mac1609_4 SNIRLostPackets 604
scalar TestScenario.uninfected[42].nic.mac1609_4 RXTXLostPackets 567
scalar TestScenario.uninfected[42].nic.mac1609_4 TotalLostPackets 1171
scalar TestScenario.uninfected[42].nic.mac1609_4 DroppedPacketsInMac 0
scalar TestScenario.uninfected[42].nic.mac1609_4 TooLittleTime 0
scalar TestScenario.uninfected[42].nic.mac1609_4 TimesIntoBackoff 59
scalar TestScenario.uninfected[42].nic.mac1609_4 SlotsBackoff 85
scalar TestScenario.uninfected[42].nic.mac1609_4 NumInternalContention 0
scalar TestScenario.uninfected[42].nic.mac1609_4 totalBusyTime 0.029643674575
scalar TestScenario.uninfected[42].veinsmobility startTime 43
scalar TestScenario.uninfected[42].veinsmobility totalTime 50
scalar TestScenario.uninfected[42].veinsmobility stopTime 94
scalar TestScenario.uninfected[42].veinsmobility minSpeed 3.9530829754764
scalar TestScenario.uninfected[42].veinsmobility maxSpeed 13.888142702524
scalar TestScenario.uninfected[42].veinsmobility totalDistance 559.35097805754
scalar TestScenario.uninfected[42].veinsmobility totalCO2Emission 156.59384604453
scalar TestScenario.uninfected[15].appl generatedWSMs 12
scalar TestScenario.uninfected[15].appl receivedWSMs 4
scalar TestScenario.uninfected[15].appl generatedBSMs 81
scalar TestScenario.uninfected[15].appl receivedBSMs 94
scalar TestScenario.uninfected[15].appl generatedWSAs 0
scalar TestScenario.uninfected[15].appl receivedWSAs 0
scalar TestScenario.uninfected[15].nic.phy80211p busyTime 0.0011331358024692
scalar TestScenario.uninfected[15].nic.mac1609_4 ReceivedUnicastPackets 0
scalar TestScenario.uninfected[15].nic.mac1609_4 ReceivedBroadcasts 98
scalar TestScenario.uninfected[15].nic.mac1609_4 SentPackets 93
scalar TestScenario.uninfected[15].nic.mac1609_4 SentAcknowledgements 0
scalar TestScenario.uninfected[15].nic.mac1609_4 SNIRLostPackets 625
scalar TestScenario.uninfected[15].nic.mac1609_4 RXTXLostPackets 583
scalar TestScenario.uninfected[15].nic.mac1609_4 TotalLostPackets 1208
scalar TestScenario.uninfected[15].nic.mac1609_4 DroppedPacketsInMac 0
scalar TestScenario.uninfected[15].nic.mac1609_4 TooLittleTime 0
scalar TestScenario.uninfected[15].nic.mac1609_4 TimesIntoBackoff 93
scalar TestScenario.uninfected[15].nic.mac1609_4 SlotsBackoff 147
scalar TestScenario.uninfected[15].nic.mac1609_4 NumInternalContention 0
scalar TestScenario.uninfected[15].nic.mac1609_4 totalBusyTime 0.038883836174
scalar TestScenario.uninfected[15].veinsmobility startTime 16
scalar TestScenario.uninfected[15].veinsmobility totalTime 80
scalar TestScenario.uninfected[15].veinsmobility stopTime 97
scalar TestScenario.uninfected[15].veinsmobility minSpeed 4.1498461646766
scalar TestScenario.uninfected[15].veinsmobility maxSpeed 13.8870143887
scalar TestScenario.uninfected[15].veinsmobility totalDistance 954.69593989603
scalar TestScenario.uninfected[15].veinsmobility totalCO2Emission 242.37468640916
scalar TestScenario.uninfected[50].appl generatedWSMs 8
scalar TestScenario.uninfected[50].appl receivedWSMs 1
scalar TestScenario.uninfected[50].appl generatedBSMs 53
scalar TestScenario.uninfected[50].appl receivedBSMs 93
scalar TestScenario.uninfected[50].appl generatedWSAs 0
scalar TestScenario.uninfected[50].appl receivedWSAs 0
scalar TestScenario.uninfected[50].nic.phy80211p busyTime 0.0022173584905661
scalar TestScenario.uninfected[50].nic.mac1609_4 ReceivedUnicastPackets 0
scalar TestScenario.uninfected[50].nic.mac1609_4 ReceivedBroadcasts 94
scalar TestScenario.uninfected[50].nic.mac1609_4 SentPackets 61
scalar TestScenario.uninfected[50].nic.mac1609_4 SentAcknowledgements 0
scalar TestScenario.uninfected[50].nic.mac1609_4 SNIRLostPackets 838
scalar TestScenario.uninfected[50].nic.mac1609_4 RXTXLostPackets 757
scalar TestScenario.uninfected[50].nic.mac1609_4 TotalLostPackets 1595
scalar TestScenario.uninfected[50].nic.mac1609_4 DroppedPacketsInMac 0
scalar TestScenario.uninfected[50].nic.mac1609_4 TooLittleTime 0
scalar TestScenario.uninfected[50].nic.mac1609_4 TimesIntoBackoff 61
scalar TestScenario.uninfected[50].nic.mac1609_4 SlotsBackoff 92
scalar TestScenario.uninfected[50].nic.mac1609_4 NumInternalContention 0
scalar TestScenario.uninfected[50].nic.mac1609_4 totalBusyTime 0.035167128408
scalar TestScenario.uninfected[50].veinsmobility startTime 52
scalar TestScenario.uninfected[50].veinsmobility totalTime 52
scalar TestScenario.uninfected[50].veinsmobility stopTime 105
scalar TestScenario.uninfected[50].veinsmobility minSpeed 2.9350091553088
scalar TestScenario.uninfected[50].veinsmobility maxSpeed 13.888244064159
scalar TestScenario.uninfected[50].veinsmobility totalDistance 567.21029162453
scalar TestScenario.uninfected[50].veinsmobility totalCO2Emission 149.27683579321
scalar TestScenario.uninfected[72].appl generatedWSMs 6
scalar TestScenario.uninfected[72].appl receivedWSMs 2
scalar TestScenario.uninfected[72].appl generatedBSMs 34
scalar TestScenario.uninfected[72].appl receivedBSMs 67
scalar TestScenario.uninfected[72].appl generatedWSAs 0
scalar TestScenario.uninfected[72].appl receivedWSAs 0
scalar TestScenario.uninfected[72].nic.phy80211p busyTime 0.0020291764705882
scalar TestScenario.uninfected[72].nic.mac1609_4 ReceivedUnicastPackets 0
scalar TestScenario.uninfected[72].nic.mac1609_4 ReceivedBroadcasts 69
scalar TestScenario.uninfected[72].nic.mac1609_4 SentPackets 40
scalar TestScenario.uninfected[72].nic.mac1609_4 SentAcknowledgements 0
scalar TestScenario.uninfected[72].nic.mac1609_4 SNIRLostPackets 475
scalar TestScenario.uninfected[72].nic.mac1609_4 RXTXLostPackets 573
scalar TestScenario.uninfected[72].nic.mac1609_4 TotalLostPackets 1048
scalar TestScenario.uninfected[72].nic.mac1609_4 DroppedPacketsInMac 0
scalar TestScenario.uninfected[72].nic.mac1609_4 TooLittleTime 0
scalar TestScenario.uninfected[72].nic.mac1609_4 TimesIntoBackoff 40
scalar TestScenario.uninfected[72].nic.mac1609_4 SlotsBackoff 64
scalar TestScenario.uninfected[72].nic.mac1609_4 NumInternalContention 0
scalar TestScenario.uninfected[72].nic.mac1609_4 totalBusyTime 0.023838660975
scalar TestScenario.uninfected[72].veinsmobility startTime 73
scalar TestScenario.uninfected[72].veinsmobility totalTime 33
scalar TestScenario.uninfected[72].veinsmobility stopTime 107
scalar TestScenario.uninfected[72].veinsmobility minSpeed 4.0897520432854
scalar TestScenario.uninfected[72].veinsmobility maxSpeed 13.880918310215
scalar TestScenario.uninfected[72].veinsmobility totalDistance 368.00985479553
scalar TestScenario.uninfected[72].veinsmobility totalCO2Emission 102.3963488565
scalar TestScenario.uninfected[29].appl generatedWSMs 12
scalar TestScenario.uninfected[29].appl receivedWSMs 3
scalar TestScenario.uninfected[29].appl generatedBSMs 80
scalar TestScenario.uninfected[29].appl receivedBSMs 109
scalar TestScenario.uninfected[29].appl generatedWSAs 0
scalar TestScenario.uninfected[29].appl receivedWSAs 0
scalar TestScenario.uninfected[29].nic.phy80211p busyTime 0.0011927
scalar TestScenario.uninfected[29].nic.mac1609_4 ReceivedUnicastPackets 0
scalar TestScenario.uninfected[29].nic.mac1609_4 ReceivedBroadcasts 112
scalar TestScenario.uninfected[29].nic.mac1609_4 SentPackets 92
scalar TestScenario.uninfected[29].nic.mac1609_4 SentAcknowledgements 0
scalar TestScenario.uninfected[29].nic.mac1609_4 SNIRLostPackets 665
scalar TestScenario.uninfected[29].nic.mac1609_4 RXTXLostPackets 693
scalar TestScenario.uninfected[29].nic.mac1609_4 TotalLostPackets 1358
scalar TestScenario.uninfected[29].nic.mac1609_4 DroppedPacketsInMac 0
scalar TestScenario.uninfected[29].nic.mac1609_4 TooLittleTime 0
scalar TestScenario.uninfected[29].nic.mac1609_4 TimesIntoBackoff 92
scalar TestScenario.uninfected[29].nic.mac1609_4 SlotsBackoff 139
scalar TestScenario.uninfected[29].nic.mac1609_4 NumInternalContention 0
scalar TestScenario.uninfected[29].nic.mac1609_4 totalBusyTime 0.040441232103
scalar TestScenario.uninfected[29].veinsmobility startTime 30
scalar TestScenario.uninfected[29].veinsmobility totalTime 79
scalar TestScenario.uninfected[29].veinsmobility stopTime 110
scalar TestScenario.uninfected[29].veinsmobility minSpeed 4.1132818567921
scalar TestScenario.uninfected[29].veinsmobility maxSpeed 13.881166093796
scalar TestScenario.uninfected[29].veinsmobility totalDistance 976.54777684503
scalar TestScenario.uninfected[29].veinsmobility totalCO2Emission 213.70173278917
scalar TestScenario.uninfected[28].appl generatedWSMs 15
scalar TestScenario.uninfected[28].appl receivedWSMs 6
scalar TestScenario.uninfected[28].appl generatedBSMs 85
scalar TestScenario.uninfected[28].appl receivedBSMs 115
scalar TestScenario.uninfected[28].appl generatedWSAs 0
scalar TestScenario.uninfected[28].appl receivedWSAs 0
scalar TestScenario.uninfected[28].nic.phy80211p busyTime 0.0018752941176471
scalar TestScenario.uninfected[28].nic.mac1609_4 ReceivedUnicastPackets 0
scalar TestScenario.uninfected[28].nic.mac1609_4 ReceivedBroadcasts 121
scalar TestScenario.uninfected[28].nic.mac1609_4 SentPackets 100
scalar TestScenario.uninfected[28].nic.mac1609_4 SentAcknowledgements 0
scalar TestScenario.uninfected[28].nic.mac1609_4 SNIRLostPackets 1115
scalar TestScenario.uninfected[28].nic.mac1609_4 RXTXLostPackets 1117
scalar TestScenario.uninfected[28].nic.mac1609_4 TotalLostPackets 2232
scalar TestScenario.uninfected[28].nic.mac1609_4 DroppedPacketsInMac 0
scalar TestScenario.uninfected[28].nic.mac1609_4 TooLittleTime 0
scalar TestScenario.uninfected[28].nic.mac1609_4 TimesIntoBackoff 100
scalar TestScenario.uninfected[28].nic.mac1609_4 SlotsBackoff 168
scalar TestScenario.uninfected[28].nic.mac1609_4 NumInternalContention 0
scalar TestScenario.uninfected[28].nic.mac1609_4 totalBusyTime 0.051604371163
scalar TestScenario.uninfected[28].veinsmobility startTime 29
scalar TestScenario.uninfected[28].veinsmobility totalTime 84
scalar TestScenario.uninfected[28].veinsmobility stopTime 114
scalar TestScenario.uninfected[28].veinsmobility minSpeed 1.7366112296531
scalar TestScenario.uninfected[28].veinsmobility maxSpeed 13.887128388127
scalar TestScenario.uninfected[28].veinsmobility totalDistance 977.33407723324
scalar TestScenario.uninfected[28].veinsmobility totalCO2Emission 239.24849491859
scalar TestScenario.uninfected[48].appl generatedWSMs 13
scalar TestScenario.uninfected[48].appl receivedWSMs 2
scalar TestScenario.uninfected[48].appl generatedBSMs 67
scalar TestScenario.uninfected[48].appl receivedBSMs 114
scalar TestScenario.uninfected[48].appl generatedWSAs 0
scalar TestScenario.uninfected[48].appl receivedWSAs 0
scalar TestScenario.uninfected[48].nic.phy80211p busyTime 0.0018528955223881
scalar TestScenario.uninfected[48].nic.mac1609_4 ReceivedUnicastPackets 0
scalar TestScenario.uninfected[48].nic.mac1609_4 ReceivedBroadcasts 116
scalar TestScenario.uninfected[48].nic.mac1609_4 SentPackets 80
scalar TestScenario.uninfected[48].nic.mac1609_4 SentAcknowledgements 0
scalar TestScenario.uninfected[48].nic.mac1609_4 SNIRLostPackets 856
scalar TestScenario.uninfected[48].nic.mac1609_4 RXTXLostPackets 974
scalar TestScenario.uninfected[48].nic.mac1609_4 TotalLostPackets 1830
scalar TestScenario.uninfected[48].nic.mac1609_4 DroppedPacketsInMac 0
scalar TestScenario.uninfected[48].nic.mac1609_4 TooLittleTime 0
scalar TestScenario.uninfected[48].nic.mac1609_4 TimesIntoBackoff 80
scalar TestScenario.uninfected[48].nic.mac1609_4 SlotsBackoff 120
scalar TestScenario.uninfected[48].nic.mac1609_4 NumInternalContention 0
scalar TestScenario.uninfected[48].nic.mac1609_4 totalBusyTime 0.041350138359
scalar TestScenario.uninfected[48].veinsmobility startTime 49
scalar TestScenario.uninfected[48].veinsmobility totalTime 66
scalar TestScenario.uninfected[48].veinsmobility stopTime 116
scalar TestScenario.uninfected[48].veinsmobility minSpeed 3.3383150107331
scalar TestScenario.uninfected[48].veinsmobility maxSpeed 13.88604097649
scalar TestScenario.uninfected[48].veinsmobility totalDistance 762.14291295908
scalar TestScenario.uninfected[48].veinsmobility totalCO2Emission 200.82520834125
scalar TestScenario.uninfected[36].appl generatedWSMs 15
scalar TestScenario.uninfected[36].appl receivedWSMs 6
scalar TestScenario.uninfected[36].appl generatedBSMs 82
scalar TestScenario.uninfected[36].appl receivedBSMs 123
scalar TestScenario.uninfected[36].appl generatedWSAs 0
scalar TestScenario.uninfected[36].appl receivedWSAs 0
scalar TestScenario.uninfected[36].nic.phy80211p busyTime 0.0012895609756098
scalar TestScenario.uninfected[36].nic.mac1609_4 ReceivedUnicastPackets 0
scalar TestScenario.uninfected[36].nic.mac1609_4 ReceivedBroadcasts 129
scalar TestScenario.uninfected[36].nic.mac1609_4 SentPackets 97
scalar TestScenario.uninfected[36].nic.mac1609_4 SentAcknowledgements 0
scalar TestScenario.uninfected[36].nic.mac1609_4 SNIRLostPackets 698
scalar TestScenario.uninfected[36].nic.mac1609_4 RXTXLostPackets 775
scalar TestScenario.uninfected[36].nic.mac1609_4 TotalLostPackets 1473
scalar TestScenario.uninfected[36].nic.mac1609_4 DroppedPacketsInMac 0
scalar TestScenario.uninfected[36].nic.mac1609_4 TooLittleTime 0
scalar TestScenario.uninfected[36].nic.mac1609_4 TimesIntoBackoff 97
scalar TestScenario.uninfected[36].nic.mac1609_4 SlotsBackoff 152
scalar TestScenario.uninfected[36].nic.mac1609_4 NumInternalContention 0
scalar TestScenario.uninfected[36].nic.mac1609_4 totalBusyTime 0.043093571563
scalar TestScenario.uninfected[36].veinsmobility startTime 37
scalar TestScenario.uninfected[36].veinsmobility totalTime 81
scalar TestScenario.uninfected[36].veinsmobility stopTime 119
scalar TestScenario.uninfected[36].veinsmobility minSpeed 3.6999789108844
scalar TestScenario.uninfected[36].veinsmobility maxSpeed 13.889567791808
scalar TestScenario.uninfected[36].veinsmobility totalDistance 962.41323998169
scalar TestScenario.uninfected[36].veinsmobility totalCO2Emission 234.99584717801
scalar TestScenario.uninfected[53].appl generatedWSMs 11
scalar TestScenario.uninfected[53].appl receivedWSMs 7
scalar TestScenario.uninfected[53].appl generatedBSMs 65
scalar TestScenario.uninfected[53].appl receivedBSMs 95
scalar TestScenario.uninfected[53].appl generatedWSAs 0
scalar TestScenario.uninfected[53].appl receivedWSAs 0
scalar TestScenario.uninfected[53].nic.phy80211p busyTime 0.0017426461538462
scalar TestScenario.uninfected[53].nic.mac1609_4 ReceivedUnicastPackets 0
scalar TestScenario.uninfected[53].nic.mac1609_4 ReceivedBroadcasts 102
scalar TestScenario.uninfected[53].nic.mac1609_4 SentPackets 76
scalar TestScenario.uninfected[53].nic.mac1609_4 SentAcknowledgements 0
scalar TestScenario.uninfected[53].nic.mac1609_4 SNIRLostPackets 769
scalar TestScenario.uninfected[53].nic.mac1609_4 RXTXLostPackets 661
scalar TestScenario.uninfected[53].nic.mac1609_4 TotalLostPackets 1430
scalar TestScenario.uninfected[53].nic.mac1609_4 DroppedPacketsInMac 0
scalar TestScenario.uninfected[53].nic.mac1609_4 TooLittleTime 0
scalar TestScenario.uninfected[53].nic.mac1609_4 TimesIntoBackoff 76
scalar TestScenario.uninfected[53].nic.mac1609_4 SlotsBackoff 114
scalar TestScenario.uninfected[53].nic.mac1609_4 NumInternalContention 0
scalar TestScenario.uninfected[53].nic.mac1609_4 totalBusyTime 0.037530040469
scalar TestScenario.uninfected[53].veinsmobility startTime 55
scalar TestScenario.uninfected[53].veinsmobility totalTime 64
scalar TestScenario.uninfected[53].veinsmobility stopTime 120
scalar TestScenario.uninfected[53].veinsmobility minSpeed 3.8271455551157
scalar TestScenario.uninfected[53].veinsmobility maxSpeed 13.889876513225
scalar TestScenario.uninfected[53].veinsmobility totalDistance 780.97076652173
scalar TestScenario.uninfected[53].veinsmobility totalCO2Emission 166.77888124195
scalar TestScenario.uninfected[43].appl generatedWSMs 14
scalar TestScenario.uninfected[43].appl receivedWSMs 5
scalar TestScenario.uninfected[43].appl generatedBSMs 81
scalar TestScenario.uninfected[43].appl receivedBSMs 108
scalar TestScenario.uninfected[43].appl generatedWSAs 0
scalar TestScenario.uninfected[43].appl receivedWSAs 0
scalar TestScenario.uninfected[43].nic.phy80211p busyTime 0.00082617283950618
scalar TestScenario.uninfected[43].nic.mac1609_4 ReceivedUnicastPackets 0
scalar TestScenario.uninfected[43].nic.mac1609_4 ReceivedBroadcasts 113
scalar TestScenario.uninfected[43].nic.mac1609_4 SentPackets 95
scalar TestScenario.uninfected[43].nic.mac1609_4 SentAcknowledgements 0
scalar TestScenario.uninfected[43].nic.mac1609_4 SNIRLostPackets 430
scalar TestScenario.uninfected[43].nic.mac1609_4 RXTXLostPackets 537
scalar TestScenario.uninfected[43].nic.mac1609_4 TotalLostPackets 967
scalar TestScenario.uninfected[43].nic.mac1609_4 DroppedPacketsInMac 0
scalar TestScenario.uninfected[43].nic.mac1609_4 TooLittleTime 0
scalar TestScenario.uninfected[43].nic.mac1609_4 TimesIntoBackoff 95
scalar TestScenario.uninfected[43].nic.mac1609_4 SlotsBackoff 160
scalar TestScenario.uninfected[43].nic.mac1609_4 NumInternalContention 0
scalar TestScenario.uninfected[43].nic.mac1609_4 totalBusyTime 0.03583190431
scalar TestScenario.uninfected[43].veinsmobility startTime 44
scalar TestScenario.uninfected[43].veinsmobility totalTime 80
scalar TestScenario.uninfected[43].veinsmobility stopTime 125
scalar TestScenario.uninfected[43].veinsmobility minSpeed 3.3481344635737
scalar TestScenario.uninfected[43].veinsmobility maxSpeed 13.889887864657
scalar TestScenario.uninfected[43].veinsmobility totalDistance 958.59146465159
scalar TestScenario.uninfected[43].veinsmobility totalCO2Emission 216.27909435517
scalar TestScenario.uninfected[38].appl generatedWSMs 16
scalar TestScenario.uninfected[38].appl receivedWSMs 9
scalar TestScenario.uninfected[38].appl generatedBSMs 86
scalar TestScenario.uninfected[38].appl receivedBSMs 137
scalar TestScenario.uninfected[38].appl generatedWSAs 0
scalar TestScenario.uninfected[38].appl receivedWSAs 0
scalar TestScenario.uninfected[38].nic.phy80211p busyTime 0.0020548837209302
scalar TestScenario.uninfected[38].nic.mac1609_4 ReceivedUnicastPackets 0
scalar TestScenario.uninfected[38].nic.mac1609_4 ReceivedBroadcasts 146
scalar TestScenario.uninfected[38].nic.mac1609_4 SentPackets 102
scalar TestScenario.uninfected[38].nic.mac1609_4 SentAcknowledgements 0
scalar TestScenario.uninfected[38].nic.mac1609_4 SNIRLostPackets 1200
scalar TestScenario.uninfected[38].nic.mac1609_4 RXTXLostPackets 1105
scalar TestScenario.uninfected[38].nic.mac1609_4 TotalLostPackets 2305
scalar TestScenario.uninfected[38].nic.mac1609_4 DroppedPacketsInMac 0
scalar TestScenario.uninfected[38].nic.mac1609_4 TooLittleTime 0
scalar TestScenario.uninfected[38].nic.mac1609_4 TimesIntoBackoff 102
scalar TestScenario.uninfected[38].nic.mac1609_4 SlotsBackoff 149
scalar TestScenario.uninfected[38].nic.mac1609_4 NumInternalContention 0
scalar TestScenario.uninfected[38].nic.mac1609_4 totalBusyTime 0.054473098274
scalar TestScenario.uninfected[38].veinsmobility startTime 39
scalar TestScenario.uninfected[38].veinsmobility totalTime 85
scalar TestScenario.uninfected[38].veinsmobility stopTime 125
scalar TestScenario.uninfected[38].veinsmobility minSpeed 3.6491827782243
scalar TestScenario.uninfected[38].veinsmobility maxSpeed 13.889449696275
scalar TestScenario.uninfected[38].veinsmobility totalDistance 957.37448458928
scalar TestScenario.uninfected[38].veinsmobility totalCO2Emission 257.65563708365
scalar TestScenario.uninfected[37].appl generatedWSMs 19
scalar TestScenario.uninfected[37].appl receivedWSMs 5
scalar TestScenario.uninfected[37].appl generatedBSMs 87
scalar TestScenario.uninfected[37].appl receivedBSMs 143
scalar TestScenario.uninfected[37].appl generatedWSAs 0
scalar TestScenario.uninfected[37].appl receivedWSAs 0
scalar TestScenario.uninfected[37].nic.phy80211p busyTime 0.0014222528735633
scalar TestScenario.uninfected[37].nic.mac1609_4 ReceivedUnicastPackets 0
scalar TestScenario.uninfected[37].nic.mac1609_4 ReceivedBroadcasts 148
scalar TestScenario.uninfected[37].nic.mac1609_4 SentPackets 106
scalar TestScenario.uninfected[37].nic.mac1609_4 SentAcknowledgements 0
scalar TestScenario.uninfected[37].nic.mac1609_4 SNIRLostPackets 859
scalar TestScenario.uninfected[37].nic.mac1609_4 RXTXLostPackets 969
scalar TestScenario.uninfected[37].nic.mac1609_4 TotalLostPackets 1828
scalar TestScenario.uninfected[37].nic.mac1609_4 DroppedPacketsInMac 0
scalar TestScenario.uninfected[37].nic.mac1609_4 TooLittleTime 0
scalar TestScenario.uninfected[37].nic.mac1609_4 TimesIntoBackoff 106
scalar TestScenario.uninfected[37].nic.mac1609_4 SlotsBackoff 178
scalar TestScenario.uninfected[37].nic.mac1609_4 NumInternalContention 0
scalar TestScenario.uninfected[37].nic.mac1609_4 totalBusyTime 0.049282929335
scalar TestScenario.uninfected[37].veinsmobility startTime 38
scalar TestScenario.uninfected[37].veinsmobility totalTime 86
scalar TestScenario.uninfected[37].veinsmobility stopTime 125
scalar TestScenario.uninfected[37].veinsmobility minSpeed 1.5180740140375
scalar TestScenario.uninfected[37].veinsmobility maxSpeed 13.882353288957
scalar TestScenario.uninfected[37].veinsmobility totalDistance 973.7823026078
scalar TestScenario.uninfected[37].veinsmobility totalCO2Emission 247.07590351837
scalar TestScenario.uninfected[17].appl generatedWSMs 17
scalar TestScenario.uninfected[17].appl receivedWSMs 10
scalar TestScenario.uninfected[17].appl generatedBSMs 108
scalar TestScenario.uninfected[17].appl receivedBSMs 157
scalar TestScenario.uninfected[17].appl generatedWSAs 0
scalar TestScenario.uninfected[17].appl receivedWSAs 0
scalar TestScenario.uninfected[17].nic.phy80211p busyTime 0.0012021481481482
scalar TestScenario.uninfected[17].nic.mac1609_4 ReceivedUnicastPackets 0
scalar TestScenario.uninfected[17].nic.mac1609_4 ReceivedBroadcasts 167
scalar TestScenario.uninfected[17].nic.mac1609_4 SentPackets 125
scalar TestScenario.uninfected[17].nic.mac1609_4 SentAcknowledgements 0
scalar TestScenario.uninfected[17].nic.mac1609_4 SNIRLostPackets 855
scalar TestScenario.uninfected[17].nic.mac1609_4 RXTXLostPackets 1049
scalar TestScenario.uninfected[17].nic.mac1609_4 TotalLostPackets 1904
scalar TestScenario.uninfected[17].nic.mac1609_4 DroppedPacketsInMac 0
scalar TestScenario.uninfected[17].nic.mac1609_4 TooLittleTime 0
scalar TestScenario.uninfected[17].nic.mac1609_4 TimesIntoBackoff 125
scalar TestScenario.uninfected[17].nic.mac1609_4 SlotsBackoff 195
scalar TestScenario.uninfected[17].nic.mac1609_4 NumInternalContention 0
scalar TestScenario.uninfected[17].nic.mac1609_4 totalBusyTime 0.057458005223
scalar TestScenario.uninfected[17].veinsmobility startTime 18
scalar TestScenario.uninfected[17].veinsmobility totalTime 107
scalar TestScenario.uninfected[17].veinsmobility stopTime 126
scalar TestScenario.uninfected[17].veinsmobility minSpeed 3.8893423576175
scalar TestScenario.uninfected[17].veinsmobility maxSpeed 13.889037982535
scalar TestScenario.uninfected[17].veinsmobility totalDistance 1360.9128753109
scalar TestScenario.uninfected[17].veinsmobility totalCO2Emission 269.14201839118
scalar TestScenario.uninfected[65].appl generatedWSMs 9
scalar TestScenario.uninfected[65].appl receivedWSMs 0
scalar TestScenario.uninfected[65].appl generatedBSMs 62
scalar TestScenario.uninfected[65].appl receivedBSMs 105
scalar TestScenario.uninfected[65].appl generatedWSAs 0
scalar TestScenario.uninfected[65].appl receivedWSAs 0
scalar TestScenario.uninfected[65].nic.phy80211p busyTime 0.0011770322580645
scalar TestScenario.uninfected[65].nic.mac1609_4 ReceivedUnicastPackets 0
scalar TestScenario.uninfected[65].nic.mac1609_4 ReceivedBroadcasts 105
scalar TestScenario.uninfected[65].nic.mac1609_4 SentPackets 71
scalar TestScenario.uninfected[65].nic.mac1609_4 SentAcknowledgements 0
scalar TestScenario.uninfected[65].nic.mac1609_4 SNIRLostPackets 478
scalar TestScenario.uninfected[65].nic.mac1609_4 RXTXLostPackets 557
scalar TestScenario.uninfected[65].nic.mac1609_4 TotalLostPackets 1035
scalar TestScenario.uninfected[65].nic.mac1609_4 DroppedPacketsInMac 0
scalar TestScenario.uninfected[65].nic.mac1609_4 TooLittleTime 0
scalar TestScenario.uninfected[65].nic.mac1609_4 TimesIntoBackoff 71
scalar TestScenario.uninfected[65].nic.mac1609_4 SlotsBackoff 114
scalar TestScenario.uninfected[65].nic.mac1609_4 NumInternalContention 0
scalar TestScenario.uninfected[65].nic.mac1609_4 totalBusyTime 0.033914363879
scalar TestScenario.uninfected[65].veinsmobility startTime 66
scalar TestScenario.uninfected[65].veinsmobility totalTime 61
scalar TestScenario.uninfected[65].veinsmobility stopTime 128
scalar TestScenario.uninfected[65].veinsmobility minSpeed 4.0195501668997
scalar TestScenario.uninfected[65].veinsmobility maxSpeed 13.889900360159
scalar TestScenario.uninfected[65].veinsmobility totalDistance 775.4190878461
scalar TestScenario.uninfected[65].veinsmobility totalCO2Emission 163.89936346876
scalar TestScenario.uninfected[64].appl generatedWSMs 11
scalar TestScenario.uninfected[64].appl receivedWSMs 3
scalar TestScenario.uninfected[64].appl generatedBSMs 65
scalar TestScenario.uninfected[64].appl receivedBSMs 110
scalar TestScenario.uninfected[64].appl generatedWSAs 0
scalar TestScenario.uninfected[64].appl receivedWSAs 0
scalar TestScenario.uninfected[64].nic.phy80211p busyTime 0.0020244923076923
scalar TestScenario.uninfected[64].nic.mac1609_4 ReceivedUnicastPackets 0
scalar TestScenario.uninfected[64].nic.mac1609_4 ReceivedBroadcasts 113
scalar TestScenario.uninfected[64].nic.mac1609_4 SentPackets 76
scalar TestScenario.uninfected[64].nic.mac1609_4 SentAcknowledgements 0
scalar TestScenario.uninfected[64].nic.mac1609_4 SNIRLostPackets 890
scalar TestScenario.uninfected[64].nic.mac1609_4 RXTXLostPackets 900
scalar TestScenario.uninfected[64].nic.mac1609_4 TotalLostPackets 1790
scalar TestScenario.uninfected[64].nic.mac1609_4 DroppedPacketsInMac 0
scalar TestScenario.uninfected[64].nic.mac1609_4 TooLittleTime 0
scalar TestScenario.uninfected[64].nic.mac1609_4 TimesIntoBackoff 76
scalar TestScenario.uninfected[64].nic.mac1609_4 SlotsBackoff 112
scalar TestScenario.uninfected[64].nic.mac1609_4 NumInternalContention 0
scalar TestScenario.uninfected[64].nic.mac1609_4 totalBusyTime 0.042589304398
scalar TestScenario.uninfected[64].veinsmobility startTime 65
scalar TestScenario.uninfected[64].veinsmobility totalTime 64
scalar TestScenario.uninfected[64].veinsmobility stopTime 130
scalar TestScenario.uninfected[64].veinsmobility minSpeed 4.0098870468103
scalar TestScenario.uninfected[64].veinsmobility maxSpeed 13.889216929397
scalar TestScenario.uninfected[64].veinsmobility totalDistance 773.36704070642
scalar TestScenario.uninfected[64].veinsmobility totalCO2Emission 175.56307243017
scalar TestScenario.uninfected[77].appl generatedWSMs 10
scalar TestScenario.uninfected[77].appl receivedWSMs 3
scalar TestScenario.uninfected[77].appl generatedBSMs 52
scalar TestScenario.uninfected[77].appl receivedBSMs 80
scalar TestScenario.uninfected[77].appl generatedWSAs 0
scalar TestScenario.uninfected[77].appl receivedWSAs 0
scalar TestScenario.uninfected[77].nic.phy80211p busyTime 0.0016350769230769
scalar TestScenario.uninfected[77].nic.mac1609_4 ReceivedUnicastPackets 0
scalar TestScenario.uninfected[77].nic.mac1609_4 ReceivedBroadcasts 83
scalar TestScenario.uninfected[77].nic.mac1609_4 SentPackets 62
scalar TestScenario.uninfected[77].nic.mac1609_4 SentAcknowledgements 0
scalar TestScenario.uninfected[77].nic.mac1609_4 SNIRLostPackets 576
scalar TestScenario.uninfected[77].nic.mac1609_4 RXTXLostPackets 623
scalar TestScenario.uninfected[77].nic.mac1609_4 TotalLostPackets 1199
scalar TestScenario.uninfected[77].nic.mac1609_4 DroppedPacketsInMac 0
scalar TestScenario.uninfected[77].nic.mac1609_4 TooLittleTime 0
scalar TestScenario.uninfected[77].nic.mac1609_4 TimesIntoBackoff 62
scalar TestScenario.uninfected[77].nic.mac1609_4 SlotsBackoff 89
scalar TestScenario.uninfected[77].nic.mac1609_4 NumInternalContention 0
scalar TestScenario.uninfected[77].nic.mac1609_4 totalBusyTime 0.029656532115
scalar TestScenario.uninfected[77].veinsmobility startTime 78
scalar TestScenario.uninfected[77].veinsmobility totalTime 51
scalar TestScenario.uninfected[77].veinsmobility stopTime 130
scalar TestScenario.uninfected[77].veinsmobility minSpeed 3.7976142693937
scalar TestScenario.uninfected[77].veinsmobility maxSpeed 13.880949763099
scalar TestScenario.uninfected[77].veinsmobility totalDistance 572.96070662458
scalar TestScenario.uninfected[77].veinsmobility totalCO2Emission 157.7949086293
scalar TestScenario.uninfected[45].appl generatedWSMs 15
scalar TestScenario.uninfected[45].appl receivedWSMs 4
scalar TestScenario.uninfected[45].appl generatedBSMs 85
scalar TestScenario.uninfected[45].appl receivedBSMs 150
scalar TestScenario.uninfected[45].appl generatedWSAs 0
scalar TestScenario.uninfected[45].appl receivedWSAs 0
scalar TestScenario.uninfected[45].nic.phy80211p busyTime 0.0016547764705883
scalar TestScenario.uninfected[45].nic.mac1609_4 ReceivedUnicastPackets 0
scalar TestScenario.uninfected[45].nic.mac1609_4 ReceivedBroadcasts 154
scalar TestScenario.uninfected[45].nic.mac1609_4 SentPackets 100
scalar TestScenario.uninfected[45].nic.mac1609_4 SentAcknowledgements 0
scalar TestScenario.uninfected[45].nic.mac1609_4 SNIRLostPackets 972
scalar TestScenario.uninfected[45].nic.mac1609_4 RXTXLostPackets 1256
scalar TestScenario.uninfected[45].nic.mac1609_4 TotalLostPackets 2228
scalar TestScenario.uninfected[45].nic.mac1609_4 DroppedPacketsInMac 0
scalar TestScenario.uninfected[45].nic.mac1609_4 TooLittleTime 0
scalar TestScenario.uninfected[45].nic.mac1609_4 TimesIntoBackoff 100
scalar TestScenario.uninfected[45].nic.mac1609_4 SlotsBackoff 145
scalar TestScenario.uninfected[45].nic.mac1609_4 NumInternalContention 0
scalar TestScenario.uninfected[45].nic.mac1609_4 totalBusyTime 0.050240917123
scalar TestScenario.uninfected[45].veinsmobility startTime 46
scalar TestScenario.uninfected[45].veinsmobility totalTime 84
scalar TestScenario.uninfected[45].veinsmobility stopTime 131
scalar TestScenario.uninfected[45].veinsmobility minSpeed 4.0093900600377
scalar TestScenario.uninfected[45].veinsmobility maxSpeed 13.881149908537
scalar TestScenario.uninfected[45].veinsmobility totalDistance 966.29717735409
scalar TestScenario.uninfected[45].veinsmobility totalCO2Emission 235.64191455471
scalar TestScenario.uninfected[6].appl generatedWSMs 28
scalar TestScenario.uninfected[6].appl receivedWSMs 5
scalar TestScenario.uninfected[6].appl generatedBSMs 126
scalar TestScenario.uninfected[6].appl receivedBSMs 175
scalar TestScenario.uninfected[6].appl generatedWSAs 0
scalar TestScenario.uninfected[6].appl receivedWSAs 0
scalar TestScenario.uninfected[6].nic.phy80211p busyTime 0.0013646349206349
scalar TestScenario.uninfected[6].nic.mac1609_4 ReceivedUnicastPackets 0
scalar TestScenario.uninfected[6].nic.mac1609_4 ReceivedBroadcasts 180
scalar TestScenario.uninfected[6].nic.mac1609_4 SentPackets 154
scalar TestScenario.uninfected[6].nic.mac1609_4 SentAcknowledgements 0
scalar TestScenario.uninfected[6].nic.mac1609_4 SNIRLostPackets 1205
scalar TestScenario.uninfected[6].nic.mac1609_4 RXTXLostPackets 1541
scalar TestScenario.uninfected[6].nic.mac1609_4 TotalLostPackets 2746
scalar TestScenario.uninfected[6].nic.mac1609_4 DroppedPacketsInMac 0
scalar TestScenario.uninfected[6].nic.mac1609_4 TooLittleTime 0
scalar TestScenario.uninfected[6].nic.mac1609_4 TimesIntoBackoff 154
scalar TestScenario.uninfected[6].nic.mac1609_4 SlotsBackoff 227
scalar TestScenario.uninfected[6].nic.mac1609_4 NumInternalContention 0
scalar TestScenario.uninfected[6].nic.mac1609_4 totalBusyTime 0.067264695162
scalar TestScenario.uninfected[6].veinsmobility startTime 7
scalar TestScenario.uninfected[6].veinsmobility totalTime 125
scalar TestScenario.uninfected[6].veinsmobility stopTime 133
scalar TestScenario.uninfected[6].veinsmobility minSpeed 0.55899670750783
scalar TestScenario.uninfected[6].veinsmobility maxSpeed 13.88800998922
scalar TestScenario.uninfected[6].veinsmobility totalDistance 1361.2438348885
scalar TestScenario.uninfected[6].veinsmobility totalCO2Emission 354.2539633726
scalar TestScenario.uninfected[25].appl generatedWSMs 17
scalar TestScenario.uninfected[25].appl receivedWSMs 8
scalar TestScenario.uninfected[25].appl generatedBSMs 110
scalar TestScenario.uninfected[25].appl receivedBSMs 146
scalar TestScenario.uninfected[25].appl generatedWSAs 0
scalar TestScenario.uninfected[25].appl receivedWSAs 0
scalar TestScenario.uninfected[25].nic.phy80211p busyTime 0.00098494545454547
scalar TestScenario.uninfected[25].nic.mac1609_4 ReceivedUnicastPackets 0
scalar TestScenario.uninfected[25].nic.mac1609_4 ReceivedBroadcasts 154
scalar TestScenario.uninfected[25].nic.mac1609_4 SentPackets 127
scalar TestScenario.uninfected[25].nic.mac1609_4 SentAcknowledgements 0
scalar TestScenario.uninfected[25].nic.mac1609_4 SNIRLostPackets 697
scalar TestScenario.uninfected[25].nic.mac1609_4 RXTXLostPackets 703
scalar TestScenario.uninfected[25].nic.mac1609_4 TotalLostPackets 1400
scalar TestScenario.uninfected[25].nic.mac1609_4 DroppedPacketsInMac 0
scalar TestScenario.uninfected[25].nic.mac1609_4 TooLittleTime 0
scalar TestScenario.uninfected[25].nic.mac1609_4 TimesIntoBackoff 127
scalar TestScenario.uninfected[25].nic.mac1609_4 SlotsBackoff 195
scalar TestScenario.uninfected[25].nic.mac1609_4 NumInternalContention 0
scalar TestScenario.uninfected[25].nic.mac1609_4 totalBusyTime 0.053798852486
scalar TestScenario.uninfected[25].veinsmobility startTime 26
scalar TestScenario.uninfected[25].veinsmobility totalTime 109
scalar TestScenario.uninfected[25].veinsmobility stopTime 136
scalar TestScenario.uninfected[25].veinsmobility minSpeed 3.8817818003288
scalar TestScenario.uninfected[25].veinsmobility maxSpeed 13.887010531228
scalar TestScenario.uninfected[25].veinsmobility totalDistance 1352.8306739433
scalar TestScenario.uninfected[25].veinsmobility totalCO2Emission 292.22460600312
scalar TestScenario.uninfected[104].appl generatedWSMs 5
scalar TestScenario.uninfected[104].appl receivedWSMs 3
scalar TestScenario.uninfected[104].appl generatedBSMs 31
scalar TestScenario.uninfected[104].appl receivedBSMs 55
scalar TestScenario.uninfected[104].appl generatedWSAs 0
scalar TestScenario.uninfected[104].appl receivedWSAs 0
scalar TestScenario.uninfected[104].nic.phy80211p busyTime 0.0022614193548387
scalar TestScenario.uninfected[104].nic.mac1609_4 ReceivedUnicastPackets 0
scalar TestScenario.uninfected[104].nic.mac1609_4 ReceivedBroadcasts 58
scalar TestScenario.uninfected[104].nic.mac1609_4 SentPackets 36
scalar TestScenario.uninfected[104].nic.mac1609_4 SentAcknowledgements 0
scalar TestScenario.uninfected[104].nic.mac1609_4 SNIRLostPackets 471
scalar TestScenario.uninfected[104].nic.mac1609_4 RXTXLostPackets 586
scalar TestScenario.uninfected[104].nic.mac1609_4 TotalLostPackets 1057
scalar TestScenario.uninfected[104].nic.mac1609_4 DroppedPacketsInMac 0
scalar TestScenario.uninfected[104].nic.mac1609_4 TooLittleTime 0
scalar TestScenario.uninfected[104].nic.mac1609_4 TimesIntoBackoff 36
scalar TestScenario.uninfected[104].nic.mac1609_4 SlotsBackoff 41
scalar TestScenario.uninfected[104].nic.mac1609_4 NumInternalContention 0
scalar TestScenario.uninfected[104].nic.mac1609_4 totalBusyTime 0.021894579662
scalar TestScenario.uninfected[104].veinsmobility startTime 106
scalar TestScenario.uninfected[104].veinsmobility totalTime 30
scalar TestScenario.uninfected[104].veinsmobility stopTime 137
scalar TestScenario.uninfected[104].veinsmobility minSpeed 3.1543896927146
scalar TestScenario.uninfected[104].veinsmobility maxSpeed 13.884780148012
scalar TestScenario.uninfected[104].veinsmobility totalDistance 372.52157117225
scalar TestScenario.uninfected[104].veinsmobility totalCO2Emission 80.654184278796
scalar TestScenario.uninfected[102].appl generatedWSMs 6
scalar TestScenario.uninfected[102].appl receivedWSMs 5
scalar TestScenario.uninfected[102].appl generatedBSMs 34
scalar TestScenario.uninfected[102].appl receivedBSMs 47
scalar TestScenario.uninfected[102].appl generatedWSAs 0
scalar TestScenario.uninfected[102].appl receivedWSAs 0
scalar TestScenario.uninfected[102].nic.phy80211p busyTime 0.0014251764705882
scalar TestScenario.uninfected[102].nic.mac1609_4 ReceivedUnicastPackets 0
scalar TestScenario.uninfected[102].nic.mac1609_4 ReceivedBroadcasts 52
scalar TestScenario.uninfected[102].nic.mac1609_4 SentPackets 40
scalar TestScenario.uninfected[102].nic.mac1609_4 SentAcknowledgements 0
scalar TestScenario.uninfected[102].nic.mac1609_4 SNIRLostPackets 326
scalar TestScenario.uninfected[102].nic.mac1609_4 RXTXLostPackets 301
scalar TestScenario.uninfected[102].nic.mac1609_4 TotalLostPackets 627
scalar TestScenario.uninfected[102].nic.mac1609_4 DroppedPacketsInMac 0
scalar TestScenario.uninfected[102].nic.mac1609_4 TooLittleTime 0
scalar TestScenario.uninfected[102].nic.mac1609_4 TimesIntoBackoff 40
scalar TestScenario.uninfected[102].nic.mac1609_4 SlotsBackoff 65
scalar TestScenario.uninfected[102].nic.mac1609_4 NumInternalContention 0
scalar TestScenario.uninfected[102].nic.mac1609_4 totalBusyTime 0.01880136895
scalar TestScenario.uninfected[102].veinsmobility startTime 104
scalar TestScenario.uninfected[102].veinsmobility totalTime 33
scalar TestScenario.uninfected[102].veinsmobility stopTime 138
scalar TestScenario.uninfected[102].veinsmobility minSpeed 3.8595246506736
scalar TestScenario.uninfected[102].veinsmobility maxSpeed 13.87993302908
scalar TestScenario.uninfected[102].veinsmobility totalDistance 365.63372740638
scalar TestScenario.uninfected[102].veinsmobility totalCO2Emission 103.70122917913
scalar TestScenario.uninfected[44].appl generatedWSMs 13
scalar TestScenario.uninfected[44].appl receivedWSMs 8
scalar TestScenario.uninfected[44].appl generatedBSMs 94
scalar TestScenario.uninfected[44].appl receivedBSMs 131
scalar TestScenario.uninfected[44].appl generatedWSAs 0
scalar TestScenario.uninfected[44].appl receivedWSAs 0
scalar TestScenario.uninfected[44].nic.phy80211p busyTime 0.0016256170212766
scalar TestScenario.uninfected[44].nic.mac1609_4 ReceivedUnicastPackets 0
scalar TestScenario.uninfected[44].nic.mac1609_4 ReceivedBroadcasts 139
scalar TestScenario.uninfected[44].nic.mac1609_4 SentPackets 107
scalar TestScenario.uninfected[44].nic.mac1609_4 SentAcknowledgements 0
scalar TestScenario.uninfected[44].nic.mac1609_4 SNIRLostPackets 1033
scalar TestScenario.uninfected[44].nic.mac1609_4 RXTXLostPackets 953
scalar TestScenario.uninfected[44].nic.mac1609_4 TotalLostPackets 1986
scalar TestScenario.uninfected[44].nic.mac1609_4 DroppedPacketsInMac 0
scalar TestScenario.uninfected[44].nic.mac1609_4 TooLittleTime 0
scalar TestScenario.uninfected[44].nic.mac1609_4 TimesIntoBackoff 107
scalar TestScenario.uninfected[44].nic.mac1609_4 SlotsBackoff 176
scalar TestScenario.uninfected[44].nic.mac1609_4 NumInternalContention 0
scalar TestScenario.uninfected[44].nic.mac1609_4 totalBusyTime 0.053402819818
scalar TestScenario.uninfected[44].veinsmobility startTime 45
scalar TestScenario.uninfected[44].veinsmobility totalTime 93
scalar TestScenario.uninfected[44].veinsmobility stopTime 139
scalar TestScenario.uninfected[44].veinsmobility minSpeed 4.0116367090552
scalar TestScenario.uninfected[44].veinsmobility maxSpeed 13.889258939452
scalar TestScenario.uninfected[44].veinsmobility totalDistance 1173.7731138643
scalar TestScenario.uninfected[44].veinsmobility totalCO2Emission 240.55960603229
scalar TestScenario.uninfected[46].appl generatedWSMs 14
scalar TestScenario.uninfected[46].appl receivedWSMs 6
scalar TestScenario.uninfected[46].appl generatedBSMs 92
scalar TestScenario.uninfected[46].appl receivedBSMs 165
scalar TestScenario.uninfected[46].appl generatedWSAs 0
scalar TestScenario.uninfected[46].appl receivedWSAs 0
scalar TestScenario.uninfected[46].nic.phy80211p busyTime 0.0017968695652174
scalar TestScenario.uninfected[46].nic.mac1609_4 ReceivedUnicastPackets 0
scalar TestScenario.uninfected[46].nic.mac1609_4 ReceivedBroadcasts 171
scalar TestScenario.uninfected[46].nic.mac1609_4 SentPackets 106
scalar TestScenario.uninfected[46].nic.mac1609_4 SentAcknowledgements 0
scalar TestScenario.uninfected[46].nic.mac1609_4 SNIRLostPackets 1109
scalar TestScenario.uninfected[46].nic.mac1609_4 RXTXLostPackets 1073
scalar TestScenario.uninfected[46].nic.mac1609_4 TotalLostPackets 2182
scalar TestScenario.uninfected[46].nic.mac1609_4 DroppedPacketsInMac 0
scalar TestScenario.uninfected[46].nic.mac1609_4 TooLittleTime 0
scalar TestScenario.uninfected[46].nic.mac1609_4 TimesIntoBackoff 106
scalar TestScenario.uninfected[46].nic.mac1609_4 SlotsBackoff 160
scalar TestScenario.uninfected[46].nic.mac1609_4 NumInternalContention 0
scalar TestScenario.uninfected[46].nic.mac1609_4 totalBusyTime 0.057314822987
scalar TestScenario.uninfected[46].veinsmobility startTime 47
scalar TestScenario.uninfected[46].veinsmobility totalTime 91
scalar TestScenario.uninfected[46].veinsmobility stopTime 139
scalar TestScenario.uninfected[46].veinsmobility minSpeed 3.5939569855188
scalar TestScenario.uninfected[46].veinsmobility maxSpeed 13.885755962622
scalar TestScenario.uninfected[46].veinsmobility totalDistance 1171.9913987452
scalar TestScenario.uninfected[46].veinsmobility totalCO2Emission 220.91520156184
scalar TestScenario.uninfected[87].appl generatedWSMs 7
scalar TestScenario.uninfected[87].appl receivedWSMs 3
scalar TestScenario.uninfected[87].appl generatedBSMs 51
scalar TestScenario.uninfected[87].appl receivedBSMs 103
scalar TestScenario.uninfected[87].appl generatedWSAs 0
scalar TestScenario.uninfected[87].appl receivedWSAs 0
scalar TestScenario.uninfected[87].nic.phy80211p busyTime 0.0022821960784314
scalar TestScenario.uninfected[87].nic.mac1609_4 ReceivedUnicastPackets 0
scalar TestScenario.uninfected[87].nic.mac1609_4 ReceivedBroadcasts 106
scalar TestScenario.uninfected[87].nic.mac1609_4 SentPackets 58
scalar TestScenario.uninfected[87].nic.mac1609_4 SentAcknowledgements 0
scalar TestScenario.uninfected[87].nic.mac1609_4 SNIRLostPackets 848
scalar TestScenario.uninfected[87].nic.mac1609_4 RXTXLostPackets 1113
scalar TestScenario.uninfected[87].nic.mac1609_4 TotalLostPackets 1961
scalar TestScenario.uninfected[87].nic.mac1609_4 DroppedPacketsInMac 0
scalar TestScenario.uninfected[87].nic.mac1609_4 TooLittleTime 0
scalar TestScenario.uninfected[87].nic.mac1609_4 TimesIntoBackoff 58
scalar TestScenario.uninfected[87].nic.mac1609_4 SlotsBackoff 97
scalar TestScenario.uninfected[87].nic.mac1609_4 NumInternalContention 0
scalar TestScenario.uninfected[87].nic.mac1609_4 totalBusyTime 0.035748592085
scalar TestScenario.uninfected[87].veinsmobility startTime 89
scalar TestScenario.uninfected[87].veinsmobility totalTime 50
scalar TestScenario.uninfected[87].veinsmobility stopTime 140
scalar TestScenario.uninfected[87].veinsmobility minSpeed 2.4773956830007
scalar TestScenario.uninfected[87].veinsmobility maxSpeed 13.886864872065
scalar TestScenario.uninfected[87].veinsmobility totalDistance 565.59801527456
scalar TestScenario.uninfected[87].veinsmobility totalCO2Emission 155.84527847835
scalar TestScenario.uninfected[75].appl generatedWSMs 11
scalar TestScenario.uninfected[75].appl receivedWSMs 6
scalar TestScenario.uninfected[75].appl generatedBSMs 67
scalar TestScenario.uninfected[75].appl receivedBSMs 92
scalar TestScenario.uninfected[75].appl generatedWSAs 0
scalar TestScenario.uninfected[75].appl receivedWSAs 0
scalar TestScenario.uninfected[75].nic.phy80211p busyTime 0.0026728358208955
scalar TestScenario.uninfected[75].nic.mac1609_4 ReceivedUnicastPackets 0
scalar TestScenario.uninfected[75].nic.mac1609_4 ReceivedBroadcasts 98
scalar TestScenario.uninfected[75].nic.mac1609_4 SentPackets 78
scalar TestScenario.uninfected[75].nic.mac1609_4 SentAcknowledgements 0
scalar TestScenario.uninfected[75].nic.mac1609_4 SNIRLostPackets 1285
scalar TestScenario.uninfected[75].nic.mac1609_4 RXTXLostPackets 1036
scalar TestScenario.uninfected[75].nic.mac1609_4 TotalLostPackets 2321
scalar TestScenario.uninfected[75].nic.mac1609_4 DroppedPacketsInMac 0
scalar TestScenario.uninfected[75].nic.mac1609_4 TooLittleTime 0
scalar TestScenario.uninfected[75].nic.mac1609_4 TimesIntoBackoff 78
[...]
scalar TestScenario.uninfected[193].nic.mac1609_4 RXTXLostPackets 22838
scalar TestScenario.uninfected[193].nic.mac1609_4 TotalLostPackets 44651
scalar TestScenario.uninfected[193].nic.mac1609_4 DroppedPacketsInMac 0
scalar TestScenario.uninfected[193].nic.mac1609_4 TooLittleTime 0
scalar TestScenario.uninfected[193].nic.mac1609_4 TimesIntoBackoff 558
scalar TestScenario.uninfected[193].nic.mac1609_4 SlotsBackoff 828
scalar TestScenario.uninfected[193].nic.mac1609_4 NumInternalContention 0
scalar TestScenario.uninfected[193].nic.mac1609_4 totalBusyTime 0.440625660456
scalar TestScenario.uninfected[193].veinsmobility startTime 197
scalar TestScenario.uninfected[193].veinsmobility totalTime 489
scalar TestScenario.uninfected[193].veinsmobility stopTime 687
scalar TestScenario.uninfected[193].veinsmobility minSpeed 0
scalar TestScenario.uninfected[193].veinsmobility maxSpeed 13.8891040764
scalar TestScenario.uninfected[193].veinsmobility totalDistance 1757.0929639744
scalar TestScenario.uninfected[193].veinsmobility totalCO2Emission 824.91188164832
scalar TestScenario.uninfected[425].appl generatedWSMs 63
scalar TestScenario.uninfected[425].appl receivedWSMs 19
scalar TestScenario.uninfected[425].appl generatedBSMs 255
scalar TestScenario.uninfected[425].appl receivedBSMs 461
scalar TestScenario.uninfected[425].appl generatedWSAs 0
scalar TestScenario.uninfected[425].appl receivedWSAs 0
scalar TestScenario.uninfected[425].nic.phy80211p busyTime 0.0048249411764711
scalar TestScenario.uninfected[425].nic.mac1609_4 ReceivedUnicastPackets 0
scalar TestScenario.uninfected[425].nic.mac1609_4 ReceivedBroadcasts 480
scalar TestScenario.uninfected[425].nic.mac1609_4 SentPackets 318
scalar TestScenario.uninfected[425].nic.mac1609_4 SentAcknowledgements 0
scalar TestScenario.uninfected[425].nic.mac1609_4 SNIRLostPackets 9061
scalar TestScenario.uninfected[425].nic.mac1609_4 RXTXLostPackets 11544
scalar TestScenario.uninfected[425].nic.mac1609_4 TotalLostPackets 20605
scalar TestScenario.uninfected[425].nic.mac1609_4 DroppedPacketsInMac 0
scalar TestScenario.uninfected[425].nic.mac1609_4 TooLittleTime 0
scalar TestScenario.uninfected[425].nic.mac1609_4 TimesIntoBackoff 319
scalar TestScenario.uninfected[425].nic.mac1609_4 SlotsBackoff 461
scalar TestScenario.uninfected[425].nic.mac1609_4 NumInternalContention 0
scalar TestScenario.uninfected[425].nic.mac1609_4 totalBusyTime 1.216752183561
scalar TestScenario.uninfected[425].veinsmobility startTime 432
scalar TestScenario.uninfected[425].veinsmobility totalTime 254
scalar TestScenario.uninfected[425].veinsmobility stopTime 687
scalar TestScenario.uninfected[425].veinsmobility minSpeed 0
scalar TestScenario.uninfected[425].veinsmobility maxSpeed 13.885092548623
scalar TestScenario.uninfected[425].veinsmobility totalDistance 978.88053929979
scalar TestScenario.uninfected[425].veinsmobility totalCO2Emission 451.38036246467
scalar TestScenario.uninfected[339].appl generatedWSMs 166
scalar TestScenario.uninfected[339].appl receivedWSMs 36
scalar TestScenario.uninfected[339].appl generatedBSMs 342
scalar TestScenario.uninfected[339].appl receivedBSMs 553
scalar TestScenario.uninfected[339].appl generatedWSAs 0
scalar TestScenario.uninfected[339].appl receivedWSAs 0
scalar TestScenario.uninfected[339].nic.phy80211p busyTime 0.0059427368421073
scalar TestScenario.uninfected[339].nic.mac1609_4 ReceivedUnicastPackets 0
scalar TestScenario.uninfected[339].nic.mac1609_4 ReceivedBroadcasts 589
scalar TestScenario.uninfected[339].nic.mac1609_4 SentPackets 508
scalar TestScenario.uninfected[339].nic.mac1609_4 SentAcknowledgements 0
scalar TestScenario.uninfected[339].nic.mac1609_4 SNIRLostPackets 15139
scalar TestScenario.uninfected[339].nic.mac1609_4 RXTXLostPackets 19059
scalar TestScenario.uninfected[339].nic.mac1609_4 TotalLostPackets 34198
scalar TestScenario.uninfected[339].nic.mac1609_4 DroppedPacketsInMac 0
scalar TestScenario.uninfected[339].nic.mac1609_4 TooLittleTime 0
scalar TestScenario.uninfected[339].nic.mac1609_4 TimesIntoBackoff 508
scalar TestScenario.uninfected[339].nic.mac1609_4 SlotsBackoff 771
scalar TestScenario.uninfected[339].nic.mac1609_4 NumInternalContention 0
scalar TestScenario.uninfected[339].nic.mac1609_4 totalBusyTime 0.322448409245
scalar TestScenario.uninfected[339].veinsmobility startTime 346
scalar TestScenario.uninfected[339].veinsmobility totalTime 341
scalar TestScenario.uninfected[339].veinsmobility stopTime 688
scalar TestScenario.uninfected[339].veinsmobility minSpeed 4.536540066203e-014
scalar TestScenario.uninfected[339].veinsmobility maxSpeed 13.886819485193
scalar TestScenario.uninfected[339].veinsmobility totalDistance 2305.5267141585
scalar TestScenario.uninfected[339].veinsmobility totalCO2Emission 758.15155561072
scalar TestScenario.uninfected[603].appl generatedWSMs 24
scalar TestScenario.uninfected[603].appl receivedWSMs 7
scalar TestScenario.uninfected[603].appl generatedBSMs 84
scalar TestScenario.uninfected[603].appl receivedBSMs 116
scalar TestScenario.uninfected[603].appl generatedWSAs 0
scalar TestScenario.uninfected[603].appl receivedWSAs 0
scalar TestScenario.uninfected[603].nic.phy80211p busyTime 0.0060251428571427
scalar TestScenario.uninfected[603].nic.mac1609_4 ReceivedUnicastPackets 0
scalar TestScenario.uninfected[603].nic.mac1609_4 ReceivedBroadcasts 123
scalar TestScenario.uninfected[603].nic.mac1609_4 SentPackets 108
scalar TestScenario.uninfected[603].nic.mac1609_4 SentAcknowledgements 0
scalar TestScenario.uninfected[603].nic.mac1609_4 SNIRLostPackets 3675
scalar TestScenario.uninfected[603].nic.mac1609_4 RXTXLostPackets 4358
scalar TestScenario.uninfected[603].nic.mac1609_4 TotalLostPackets 8033
scalar TestScenario.uninfected[603].nic.mac1609_4 DroppedPacketsInMac 0
scalar TestScenario.uninfected[603].nic.mac1609_4 TooLittleTime 0
scalar TestScenario.uninfected[603].nic.mac1609_4 TimesIntoBackoff 108
scalar TestScenario.uninfected[603].nic.mac1609_4 SlotsBackoff 170
scalar TestScenario.uninfected[603].nic.mac1609_4 NumInternalContention 0
scalar TestScenario.uninfected[603].nic.mac1609_4 totalBusyTime 0.079587054836
scalar TestScenario.uninfected[603].veinsmobility startTime 605
scalar TestScenario.uninfected[603].veinsmobility totalTime 83
scalar TestScenario.uninfected[603].veinsmobility stopTime 689
scalar TestScenario.uninfected[603].veinsmobility minSpeed 0
scalar TestScenario.uninfected[603].veinsmobility maxSpeed 13.888917660066
scalar TestScenario.uninfected[603].veinsmobility totalDistance 747.62295561456
scalar TestScenario.uninfected[603].veinsmobility totalCO2Emission 227.93459164858
scalar TestScenario.uninfected[557].appl generatedWSMs 24
scalar TestScenario.uninfected[557].appl receivedWSMs 11
scalar TestScenario.uninfected[557].appl generatedBSMs 130
scalar TestScenario.uninfected[557].appl receivedBSMs 252
scalar TestScenario.uninfected[557].appl generatedWSAs 0
scalar TestScenario.uninfected[557].appl receivedWSAs 0
scalar TestScenario.uninfected[557].nic.phy80211p busyTime 0.0028910153846153
scalar TestScenario.uninfected[557].nic.mac1609_4 ReceivedUnicastPackets 0
scalar TestScenario.uninfected[557].nic.mac1609_4 ReceivedBroadcasts 263
scalar TestScenario.uninfected[557].nic.mac1609_4 SentPackets 154
scalar TestScenario.uninfected[557].nic.mac1609_4 SentAcknowledgements 0
scalar TestScenario.uninfected[557].nic.mac1609_4 SNIRLostPackets 2593
scalar TestScenario.uninfected[557].nic.mac1609_4 RXTXLostPackets 3089
scalar TestScenario.uninfected[557].nic.mac1609_4 TotalLostPackets 5682
scalar TestScenario.uninfected[557].nic.mac1609_4 DroppedPacketsInMac 0
scalar TestScenario.uninfected[557].nic.mac1609_4 TooLittleTime 0
scalar TestScenario.uninfected[557].nic.mac1609_4 TimesIntoBackoff 154
scalar TestScenario.uninfected[557].nic.mac1609_4 SlotsBackoff 232
scalar TestScenario.uninfected[557].nic.mac1609_4 NumInternalContention 0
scalar TestScenario.uninfected[557].nic.mac1609_4 totalBusyTime 0.09742770694
scalar TestScenario.uninfected[557].veinsmobility startTime 559
scalar TestScenario.uninfected[557].veinsmobility totalTime 129
scalar TestScenario.uninfected[557].veinsmobility stopTime 689
scalar TestScenario.uninfected[557].veinsmobility minSpeed 2.9993993670464
scalar TestScenario.uninfected[557].veinsmobility maxSpeed 13.888894213517
scalar TestScenario.uninfected[557].veinsmobility totalDistance 1362.939957881
scalar TestScenario.uninfected[557].veinsmobility totalCO2Emission 342.67063052574
scalar TestScenario.uninfected[482].appl generatedWSMs 30
scalar TestScenario.uninfected[482].appl receivedWSMs 19
scalar TestScenario.uninfected[482].appl generatedBSMs 200
scalar TestScenario.uninfected[482].appl receivedBSMs 380
scalar TestScenario.uninfected[482].appl generatedWSAs 0
scalar TestScenario.uninfected[482].appl receivedWSAs 0
scalar TestScenario.uninfected[482].nic.phy80211p busyTime 0.0061974400000007
scalar TestScenario.uninfected[482].nic.mac1609_4 ReceivedUnicastPackets 0
scalar TestScenario.uninfected[482].nic.mac1609_4 ReceivedBroadcasts 399
scalar TestScenario.uninfected[482].nic.mac1609_4 SentPackets 230
scalar TestScenario.uninfected[482].nic.mac1609_4 SentAcknowledgements 0
scalar TestScenario.uninfected[482].nic.mac1609_4 SNIRLostPackets 9323
scalar TestScenario.uninfected[482].nic.mac1609_4 RXTXLostPackets 9186
scalar TestScenario.uninfected[482].nic.mac1609_4 TotalLostPackets 18509
scalar TestScenario.uninfected[482].nic.mac1609_4 DroppedPacketsInMac 0
scalar TestScenario.uninfected[482].nic.mac1609_4 TooLittleTime 0
scalar TestScenario.uninfected[482].nic.mac1609_4 TimesIntoBackoff 230
scalar TestScenario.uninfected[482].nic.mac1609_4 SlotsBackoff 345
scalar TestScenario.uninfected[482].nic.mac1609_4 NumInternalContention 0
scalar TestScenario.uninfected[482].nic.mac1609_4 totalBusyTime 0.187483477621
scalar TestScenario.uninfected[482].veinsmobility startTime 490
scalar TestScenario.uninfected[482].veinsmobility totalTime 199
scalar TestScenario.uninfected[482].veinsmobility stopTime 690
scalar TestScenario.uninfected[482].veinsmobility minSpeed 3.1738227378767e-015
scalar TestScenario.uninfected[482].veinsmobility maxSpeed 13.889734260512
scalar TestScenario.uninfected[482].veinsmobility totalDistance 1176.5666345593
scalar TestScenario.uninfected[482].veinsmobility totalCO2Emission 426.37388905019
scalar TestScenario.uninfected[643].appl generatedWSMs 10
scalar TestScenario.uninfected[643].appl receivedWSMs 7
scalar TestScenario.uninfected[643].appl generatedBSMs 42
scalar TestScenario.uninfected[643].appl receivedBSMs 53
scalar TestScenario.uninfected[643].appl generatedWSAs 0
scalar TestScenario.uninfected[643].appl receivedWSAs 0
scalar TestScenario.uninfected[643].nic.phy80211p busyTime 0.007783238095238
scalar TestScenario.uninfected[643].nic.mac1609_4 ReceivedUnicastPackets 0
scalar TestScenario.uninfected[643].nic.mac1609_4 ReceivedBroadcasts 60
scalar TestScenario.uninfected[643].nic.mac1609_4 SentPackets 52
scalar TestScenario.uninfected[643].nic.mac1609_4 SentAcknowledgements 0
scalar TestScenario.uninfected[643].nic.mac1609_4 SNIRLostPackets 2392
scalar TestScenario.uninfected[643].nic.mac1609_4 RXTXLostPackets 2559
scalar TestScenario.uninfected[643].nic.mac1609_4 TotalLostPackets 4951
scalar TestScenario.uninfected[643].nic.mac1609_4 DroppedPacketsInMac 0
scalar TestScenario.uninfected[643].nic.mac1609_4 TooLittleTime 0
scalar TestScenario.uninfected[643].nic.mac1609_4 TimesIntoBackoff 52
scalar TestScenario.uninfected[643].nic.mac1609_4 SlotsBackoff 83
scalar TestScenario.uninfected[643].nic.mac1609_4 NumInternalContention 0
scalar TestScenario.uninfected[643].nic.mac1609_4 totalBusyTime 0.040573110373
scalar TestScenario.uninfected[643].veinsmobility startTime 648
scalar TestScenario.uninfected[643].veinsmobility totalTime 41
scalar TestScenario.uninfected[643].veinsmobility stopTime 690
scalar TestScenario.uninfected[643].veinsmobility minSpeed 1.7468133806373
scalar TestScenario.uninfected[643].veinsmobility maxSpeed 13.882414609441
scalar TestScenario.uninfected[643].veinsmobility totalDistance 378.71431776854
scalar TestScenario.uninfected[643].veinsmobility totalCO2Emission 114.44234308868
scalar TestScenario.uninfected[272].appl generatedWSMs 34
scalar TestScenario.uninfected[272].appl receivedWSMs 18
scalar TestScenario.uninfected[272].appl generatedBSMs 415
scalar TestScenario.uninfected[272].appl receivedBSMs 599
scalar TestScenario.uninfected[272].appl generatedWSAs 0
scalar TestScenario.uninfected[272].appl receivedWSAs 0
scalar TestScenario.uninfected[272].nic.phy80211p busyTime 0.0051326843373508
scalar TestScenario.uninfected[272].nic.mac1609_4 ReceivedUnicastPackets 0
scalar TestScenario.uninfected[272].nic.mac1609_4 ReceivedBroadcasts 617
scalar TestScenario.uninfected[272].nic.mac1609_4 SentPackets 449
scalar TestScenario.uninfected[272].nic.mac1609_4 SentAcknowledgements 0
scalar TestScenario.uninfected[272].nic.mac1609_4 SNIRLostPackets 16298
scalar TestScenario.uninfected[272].nic.mac1609_4 RXTXLostPackets 16857
scalar TestScenario.uninfected[272].nic.mac1609_4 TotalLostPackets 33155
scalar TestScenario.uninfected[272].nic.mac1609_4 DroppedPacketsInMac 0
scalar TestScenario.uninfected[272].nic.mac1609_4 TooLittleTime 0
scalar TestScenario.uninfected[272].nic.mac1609_4 TimesIntoBackoff 449
scalar TestScenario.uninfected[272].nic.mac1609_4 SlotsBackoff 651
scalar TestScenario.uninfected[272].nic.mac1609_4 NumInternalContention 0
scalar TestScenario.uninfected[272].nic.mac1609_4 totalBusyTime 0.351567933884
scalar TestScenario.uninfected[272].veinsmobility startTime 278
scalar TestScenario.uninfected[272].veinsmobility totalTime 414
scalar TestScenario.uninfected[272].veinsmobility stopTime 693
scalar TestScenario.uninfected[272].veinsmobility minSpeed 4.538187929584e-014
scalar TestScenario.uninfected[272].veinsmobility maxSpeed 13.889415305671
scalar TestScenario.uninfected[272].veinsmobility totalDistance 1577.8032092726
scalar TestScenario.uninfected[272].veinsmobility totalCO2Emission 740.3049654377
scalar TestScenario.uninfected[553].appl generatedWSMs 32
scalar TestScenario.uninfected[553].appl receivedWSMs 14
scalar TestScenario.uninfected[553].appl generatedBSMs 143
scalar TestScenario.uninfected[553].appl receivedBSMs 199
scalar TestScenario.uninfected[553].appl generatedWSAs 0
scalar TestScenario.uninfected[553].appl receivedWSAs 0
scalar TestScenario.uninfected[553].nic.phy80211p busyTime 0.0063550769230768
scalar TestScenario.uninfected[553].nic.mac1609_4 ReceivedUnicastPackets 0
scalar TestScenario.uninfected[553].nic.mac1609_4 ReceivedBroadcasts 213
scalar TestScenario.uninfected[553].nic.mac1609_4 SentPackets 175
scalar TestScenario.uninfected[553].nic.mac1609_4 SentAcknowledgements 0
scalar TestScenario.uninfected[553].nic.mac1609_4 SNIRLostPackets 6792
scalar TestScenario.uninfected[553].nic.mac1609_4 RXTXLostPackets 7641
scalar TestScenario.uninfected[553].nic.mac1609_4 TotalLostPackets 14433
scalar TestScenario.uninfected[553].nic.mac1609_4 DroppedPacketsInMac 0
scalar TestScenario.uninfected[553].nic.mac1609_4 TooLittleTime 0
scalar TestScenario.uninfected[553].nic.mac1609_4 TimesIntoBackoff 175
scalar TestScenario.uninfected[553].nic.mac1609_4 SlotsBackoff 255
scalar TestScenario.uninfected[553].nic.mac1609_4 NumInternalContention 0
scalar TestScenario.uninfected[553].nic.mac1609_4 totalBusyTime 0.134721608291
scalar TestScenario.uninfected[553].veinsmobility startTime 553
scalar TestScenario.uninfected[553].veinsmobility totalTime 142
scalar TestScenario.uninfected[553].veinsmobility stopTime 696
scalar TestScenario.uninfected[553].veinsmobility minSpeed 0
scalar TestScenario.uninfected[553].veinsmobility maxSpeed 13.868915414738
scalar TestScenario.uninfected[553].veinsmobility totalDistance 564.81174385036
scalar TestScenario.uninfected[553].veinsmobility totalCO2Emission 259.91473399687
scalar TestScenario.uninfected[438].appl generatedWSMs 64
scalar TestScenario.uninfected[438].appl receivedWSMs 19
scalar TestScenario.uninfected[438].appl generatedBSMs 253
scalar TestScenario.uninfected[438].appl receivedBSMs 486
scalar TestScenario.uninfected[438].appl generatedWSAs 0
scalar TestScenario.uninfected[438].appl receivedWSAs 0
scalar TestScenario.uninfected[438].nic.phy80211p busyTime 0.0042254545454546
scalar TestScenario.uninfected[438].nic.mac1609_4 ReceivedUnicastPackets 0
scalar TestScenario.uninfected[438].nic.mac1609_4 ReceivedBroadcasts 505
scalar TestScenario.uninfected[438].nic.mac1609_4 SentPackets 317
scalar TestScenario.uninfected[438].nic.mac1609_4 SentAcknowledgements 0
scalar TestScenario.uninfected[438].nic.mac1609_4 SNIRLostPackets 7660
scalar TestScenario.uninfected[438].nic.mac1609_4 RXTXLostPackets 9260
scalar TestScenario.uninfected[438].nic.mac1609_4 TotalLostPackets 16920
scalar TestScenario.uninfected[438].nic.mac1609_4 DroppedPacketsInMac 0
scalar TestScenario.uninfected[438].nic.mac1609_4 TooLittleTime 0
scalar TestScenario.uninfected[438].nic.mac1609_4 TimesIntoBackoff 317
scalar TestScenario.uninfected[438].nic.mac1609_4 SlotsBackoff 445
scalar TestScenario.uninfected[438].nic.mac1609_4 NumInternalContention 0
scalar TestScenario.uninfected[438].nic.mac1609_4 totalBusyTime 0.218406225953
scalar TestScenario.uninfected[438].veinsmobility startTime 444
scalar TestScenario.uninfected[438].veinsmobility totalTime 252
scalar TestScenario.uninfected[438].veinsmobility stopTime 697
scalar TestScenario.uninfected[438].veinsmobility minSpeed 4.543554408307e-014
scalar TestScenario.uninfected[438].veinsmobility maxSpeed 13.888275616141
scalar TestScenario.uninfected[438].veinsmobility totalDistance 2125.0705694367
scalar TestScenario.uninfected[438].veinsmobility totalCO2Emission 638.25311634764
scalar TestScenario.uninfected[621].appl generatedWSMs 18
scalar TestScenario.uninfected[621].appl receivedWSMs 10
scalar TestScenario.uninfected[621].appl generatedBSMs 73
scalar TestScenario.uninfected[621].appl receivedBSMs 120
scalar TestScenario.uninfected[621].appl generatedWSAs 0
scalar TestScenario.uninfected[621].appl receivedWSAs 0
scalar TestScenario.uninfected[621].nic.phy80211p busyTime 0.0048839452054794
scalar TestScenario.uninfected[621].nic.mac1609_4 ReceivedUnicastPackets 0
scalar TestScenario.uninfected[621].nic.mac1609_4 ReceivedBroadcasts 130
scalar TestScenario.uninfected[621].nic.mac1609_4 SentPackets 91
scalar TestScenario.uninfected[621].nic.mac1609_4 SentAcknowledgements 0
scalar TestScenario.uninfected[621].nic.mac1609_4 SNIRLostPackets 2619
scalar TestScenario.uninfected[621].nic.mac1609_4 RXTXLostPackets 3285
scalar TestScenario.uninfected[621].nic.mac1609_4 TotalLostPackets 5904
scalar TestScenario.uninfected[621].nic.mac1609_4 DroppedPacketsInMac 0
scalar TestScenario.uninfected[621].nic.mac1609_4 TooLittleTime 0
scalar TestScenario.uninfected[621].nic.mac1609_4 TimesIntoBackoff 91
scalar TestScenario.uninfected[621].nic.mac1609_4 SlotsBackoff 147
scalar TestScenario.uninfected[621].nic.mac1609_4 NumInternalContention 0
scalar TestScenario.uninfected[621].nic.mac1609_4 totalBusyTime 0.063223292783
scalar TestScenario.uninfected[621].veinsmobility startTime 624
scalar TestScenario.uninfected[621].veinsmobility totalTime 72
scalar TestScenario.uninfected[621].veinsmobility stopTime 697
scalar TestScenario.uninfected[621].veinsmobility minSpeed 1.4014481272409
scalar TestScenario.uninfected[621].veinsmobility maxSpeed 13.886496891626
scalar TestScenario.uninfected[621].veinsmobility totalDistance 773.37224758652
scalar TestScenario.uninfected[621].veinsmobility totalCO2Emission 188.97905613871
scalar TestScenario.uninfected[680].appl generatedWSMs 2
scalar TestScenario.uninfected[680].appl receivedWSMs 7
scalar TestScenario.uninfected[680].appl generatedBSMs 17
scalar TestScenario.uninfected[680].appl receivedBSMs 31
scalar TestScenario.uninfected[680].appl generatedWSAs 0
scalar TestScenario.uninfected[680].appl receivedWSAs 0
scalar TestScenario.uninfected[680