file 4330858 1594064814                                         
version 2
run Default-0-20200706-16:20:20-17864
attr configname Default
attr datetime 20200706-16:20:20
attr experiment Default
attr inifile omnetpp.ini
attr iterationvars ""
attr iterationvarsf ""
attr measurement ""
attr network sim1.src.TestScenario
attr processid 17864
attr repetition 0
attr replication #0
attr resultdir results
attr runnumber 0
attr seedset 0
param *.playgroundSizeX 1000m
param *.playgroundSizeY 1000m
param *.playgroundSizeZ 50m
param *.manager.moduleType "\"exploited=org.car2x.veins.nodes.Car *=org.car2x.veins.nodes.Car\""
param *.manager.moduleName "\"exploited=exploited *=uninfected\""
param *.manager.updateInterval 1s
param *.manager.host "\"localhost\""
param *.manager.port 9999
param *.manager.autoShutdown true
param *.manager.launchConfig "xmldoc(\"demo.launchd.xml\")"
param *.connectionManager.sendDirect true
param *.connectionManager.maxInterfDist 300m
param *.connectionManager.drawMaxIntfDist false
param *.**.nic.mac1609_4.useServiceChannel false
param *.**.nic.mac1609_4.txPower 20mW
param *.**.nic.mac1609_4.bitrate 6Mbps
param *.**.nic.phy80211p.sensitivity -89dBm
param *.**.nic.phy80211p.useThermalNoise true
param *.**.nic.phy80211p.thermalNoise -110dBm
param *.**.nic.phy80211p.decider "xmldoc(\"config.xml\")"
param *.**.nic.phy80211p.analogueModels "xmldoc(\"config.xml\")"
param *.**.nic.phy80211p.usePropagationDelay true
param *.**.nic.phy80211p.antenna "xmldoc(\"antenna.xml\", \"/root/Antenna[@id='monopole']\")"
param *.uninfected[*].applType "\"sim1.src.Uninfected\""
param *.uninfected[*].appl.dataPriority 2
param *.uninfected[*].appl.headerLength "80 bit"
param *.uninfected[*].appl.sendBeacons false
param *.uninfected[*].appl.dataOnSch false
param *.uninfected[*].appl.beaconInterval 1s
param *.uninfected[*].veinsmobilityType.debug true
param *.uninfected[*].veinsmobility.x 0
param *.uninfected[*].veinsmobility.y 0
param *.uninfected[*].veinsmobility.z 1.895
param *.uninfected[*0].veinsmobility.accidentCount 1
param *.uninfected[*0].veinsmobility.accidentStart 75s
param *.uninfected[*0].veinsmobility.accidentDuration 50s
param *.exploited[*].applType "\"sim1.src.Exploited\""
param *.exploited[*].appl.dataPriority 2
param *.exploited[*].appl.headerLength "80 bit"
param *.exploited[*].appl.sendBeacons false
param *.exploited[*].appl.dataOnSch false
param *.exploited[*].appl.beaconInterval 1s
param *.exploited[*].veinsmobilityType.debug true
param *.exploited[*].veinsmobility.x 0
param *.exploited[*].veinsmobility.y 0
param *.exploited[*].veinsmobility.z 1.895
param *.exploited[*0].veinsmobility.accidentCount 1
param *.exploited[*0].veinsmobility.accidentStart 75s
param *.exploited[*0].veinsmobility.accidentDuration 50s

vector 0 TestScenario.uninfected[0].veinsmobility posx ETV
vector 1 TestScenario.uninfected[0].veinsmobility posy ETV
vector 2 TestScenario.uninfected[1].veinsmobility posx ETV
vector 3 TestScenario.uninfected[1].veinsmobility posy ETV
vector 4 TestScenario.uninfected[0].veinsmobility speed ETV
vector 5 TestScenario.uninfected[2].veinsmobility posx ETV
vector 6 TestScenario.uninfected[2].veinsmobility posy ETV
vector 7 TestScenario.uninfected[0].veinsmobility acceleration ETV
vector 8 TestScenario.uninfected[0].veinsmobility co2emission ETV
vector 9 TestScenario.uninfected[1].veinsmobility speed ETV
vector 10 TestScenario.uninfected[3].veinsmobility posx ETV
vector 11 TestScenario.uninfected[3].veinsmobility posy ETV
vector 12 TestScenario.uninfected[1].veinsmobility acceleration ETV
vector 13 TestScenario.uninfected[1].veinsmobility co2emission ETV
vector 14 TestScenario.uninfected[2].veinsmobility speed ETV
vector 15 TestScenario.uninfected[4].veinsmobility posx ETV
vector 16 TestScenario.uninfected[4].veinsmobility posy ETV
vector 17 TestScenario.uninfected[2].veinsmobility acceleration ETV
vector 18 TestScenario.uninfected[2].veinsmobility co2emission ETV
vector 19 TestScenario.uninfected[3].veinsmobility speed ETV
vector 20 TestScenario.uninfected[5].veinsmobility posx ETV
vector 21 TestScenario.uninfected[5].veinsmobility posy ETV
vector 22 TestScenario.uninfected[3].veinsmobility acceleration ETV
vector 23 TestScenario.uninfected[3].veinsmobility co2emission ETV
vector 24 TestScenario.uninfected[4].veinsmobility speed ETV
vector 25 TestScenario.uninfected[6].veinsmobility posx ETV
vector 26 TestScenario.uninfected[6].veinsmobility posy ETV
vector 27 TestScenario.uninfected[4].veinsmobility acceleration ETV
vector 28 TestScenario.uninfected[4].veinsmobility co2emission ETV
vector 29 TestScenario.uninfected[5].veinsmobility speed ETV
vector 30 TestScenario.uninfected[7].veinsmobility posx ETV
vector 31 TestScenario.uninfected[7].veinsmobility posy ETV
vector 32 TestScenario.uninfected[5].veinsmobility acceleration ETV
vector 33 TestScenario.uninfected[5].veinsmobility co2emission ETV
vector 34 TestScenario.uninfected[6].veinsmobility speed ETV
vector 35 TestScenario.uninfected[8].veinsmobility posx ETV
vector 36 TestScenario.uninfected[8].veinsmobility posy ETV
vector 37 TestScenario.uninfected[6].veinsmobility acceleration ETV
vector 38 TestScenario.uninfected[6].veinsmobility co2emission ETV
vector 39 TestScenario.uninfected[7].veinsmobility speed ETV
vector 40 TestScenario.uninfected[9].veinsmobility posx ETV
vector 41 TestScenario.uninfected[9].veinsmobility posy ETV
vector 42 TestScenario.uninfected[7].veinsmobility acceleration ETV
vector 43 TestScenario.uninfected[7].veinsmobility co2emission ETV
vector 44 TestScenario.uninfected[8].veinsmobility speed ETV
vector 45 TestScenario.uninfected[10].veinsmobility posx ETV
vector 46 TestScenario.uninfected[10].veinsmobility posy ETV
vector 47 TestScenario.uninfected[8].veinsmobility acceleration ETV
vector 48 TestScenario.uninfected[8].veinsmobility co2emission ETV
vector 49 TestScenario.uninfected[9].veinsmobility speed ETV
vector 50 TestScenario.uninfected[11].veinsmobility posx ETV
vector 51 TestScenario.uninfected[11].veinsmobility posy ETV
vector 52 TestScenario.uninfected[9].veinsmobility acceleration ETV
vector 53 TestScenario.uninfected[9].veinsmobility co2emission ETV
vector 54 TestScenario.uninfected[10].veinsmobility speed ETV
vector 55 TestScenario.uninfected[12].veinsmobility posx ETV
vector 56 TestScenario.uninfected[12].veinsmobility posy ETV
vector 57 TestScenario.uninfected[10].veinsmobility acceleration ETV
vector 58 TestScenario.uninfected[10].veinsmobility co2emission ETV
vector 59 TestScenario.uninfected[11].veinsmobility speed ETV
vector 60 TestScenario.uninfected[13].veinsmobility posx ETV
vector 61 TestScenario.uninfected[13].veinsmobility posy ETV
vector 62 TestScenario.uninfected[11].veinsmobility acceleration ETV
vector 63 TestScenario.uninfected[11].veinsmobility co2emission ETV
vector 64 TestScenario.uninfected[12].veinsmobility speed ETV
vector 65 TestScenario.uninfected[14].veinsmobility posx ETV
vector 66 TestScenario.uninfected[14].veinsmobility posy ETV
vector 67 TestScenario.uninfected[12].veinsmobility acceleration ETV
vector 68 TestScenario.uninfected[12].veinsmobility co2emission ETV
vector 69 TestScenario.uninfected[13].veinsmobility speed ETV
vector 70 TestScenario.uninfected[15].veinsmobility posx ETV
vector 71 TestScenario.uninfected[15].veinsmobility posy ETV
vector 72 TestScenario.uninfected[13].veinsmobility acceleration ETV
vector 73 TestScenario.uninfected[13].veinsmobility co2emission ETV
vector 74 TestScenario.uninfected[14].veinsmobility speed ETV
vector 75 TestScenario.exploited[16].veinsmobility posx ETV
vector 76 TestScenario.exploited[16].veinsmobility posy ETV
vector 77 TestScenario.uninfected[14].veinsmobility acceleration ETV
vector 78 TestScenario.uninfected[14].veinsmobility co2emission ETV
vector 79 TestScenario.uninfected[15].veinsmobility speed ETV
vector 80 TestScenario.uninfected[17].veinsmobility posx ETV
vector 81 TestScenario.uninfected[17].veinsmobility posy ETV
vector 82 TestScenario.uninfected[15].veinsmobility acceleration ETV
vector 83 TestScenario.uninfected[15].veinsmobility co2emission ETV
vector 84 TestScenario.exploited[16].veinsmobility speed ETV
vector 85 TestScenario.uninfected[18].veinsmobility posx ETV
vector 86 TestScenario.uninfected[18].veinsmobility posy ETV
vector 87 TestScenario.exploited[16].veinsmobility acceleration ETV
vector 88 TestScenario.exploited[16].veinsmobility co2emission ETV
vector 89 TestScenario.uninfected[17].veinsmobility speed ETV
0	8558 453 2 20 1 19 19 238.33130028169 422.98626923572 6068.3031804433 2016686.0142162
1	9011 260 2 20 1 19 19 26.6 29.643782059533 508.44378205953 13614.833814793
2	9271 433 3 20 2 19 18 31.402947068662 211.61882214952 2446.3489864471 399993.22590726
3	9704 255 3 20 2 19 18 823.4 823.4 14821.2 12203776.08
4	9959 429 3 20 2 19 18 3.722822103166 13.864000451695 194.76686509691 2325.3122630696
5	10388 409 4 20 3 19 17 438.34775942317 606.77004479702 8633.9115622347 4440353.1079028
6	10797 242 4 20 3 19 17 826.6 826.6 14052.2 11615548.52
7	11039 435 4 20 3 19 17 -4.423271063126 2.1980462150532 3.6958860044755 48.097438129847
8	11474 381 4 20 3 19 17 0.973 8.4055474696849 54.773986775394 267.72743541774
9	11855 412 4 20 3 19 17 3.8605596513442 13.877448550137 185.57773323176 2252.6325116086
10	12267 245 5 20 4 19 16 226.6 226.6 3625.6 821560.96
11	12512 401 5 20 4 19 16 451.871570739 611.63399887184 8758.3393021838 4840149.37854
12	12913 426 5 20 4 19 16 -4.4933344068858 2.0812686025072 0.021190434917662 55.023335267448
13	13339 375 5 20 4 19 16 0.973 8.8891102605953 51.24563357246 252.04487991953
14	13714 404 5 20 4 19 16 3.9817542820289 13.884849982031 177.50161984057 2147.5079654553
15	14118 231 6 20 5 19 15 426.6 426.6 6399 2729813.4
16	14349 380 6 20 5 19 15 666.70179909126 811.65841929311 11315.621061255 8571824.3639838
17	14729 399 6 20 5 19 15 -3.2316541661075 2.1563206688361 2.1845215954104 39.737368910539
18	15128 351 6 20 5 19 15 0.973 8.0164398552752 48.958853389513 237.79663187345
19	15479 381 6 20 5 19 15 4.1837425248161 13.882346863034 178.89496624911 2282.0853405173
20	15860 217 7 20 6 19 14 626.6 626.6 8772.4 5496785.84
21	16077 357 7 20 6 19 14 80.428274739445 211.64598335749 2249.9760740086 389089.10753365
22	16434 379 7 20 6 19 14 -0.096696840929798 2.144160495922 9.6620891454724 18.718170567595
23	16813 354 7 20 6 19 14 1.6957815879752 8.0209828473551 49.989123858946 247.65898708308
24	17167 356 7 20 6 19 14 4.0393522846261 13.882207241184 164.05431288556 2071.849030547
25	17523 203 8 20 7 19 13 826.6 826.6 10745.8 8882478.28
26	17726 332 8 20 7 19 13 295.16981622878 411.64960145386 4775.3430459913 1774281.7604441
27	18058 350 8 20 7 19 13 -0.079487094047945 2.1338141985494 9.8073483515363 18.875872854855
28	18408 333 8 20 7 19 13 1.7543548741923 8.0822547659377 48.063880038946 243.56953111143
29	18741 331 8 20 7 19 13 3.9208195363214 13.873900225542 150.27193455438 1884.7752765146
30	19072 308 9 20 8 19 12 507.6335930523 611.64810680636 6871.7445842178 3950064.2865528
31	19380 189 9 20 8 19 12 823.4 823.4 9880.8 8135850.72
32	19569 327 9 20 8 19 12 -0.092627549399623 2.1357271100557 9.8746079667452 19.693865513985
33	19896 305 9 20 8 19 12 1.7089572443878 8.076140285373 46.101506412257 244.33255744949
34	20201 307 9 20 8 19 12 3.9761301818291 13.885804472454 135.74710140408 1678.3604454476
35	20508 285 10 20 9 19 11 723.57481439595 811.64220992029 8575.4673467499 6695113.4470488
36	20793 175 10 20 9 19 11 423.4 423.4 4657.4 1971943.16
37	20968 300 10 20 9 19 11 -0.036873145825229 2.1023168102838 9.9009045352031 18.723706039907
38	21268 284 10 20 9 19 11 1.900028569126 8.2707077585943 44.123709185579 234.79733571072
39	21552 285 10 20 9 19 11 3.7866329477703 13.836013607285 122.9826717333 1508.8609026155
40	21837 160 11 20 10 19 10 423.4 423.4 4234 1792675.6
41	21997 260 11 20 10 19 10 438.37394646382 515.28795548406 4661.5747982613 2179891.887718
42	22257 274 11 20 10 19 10 -0.049671344195959 2.2780713438196 10.027370017634 20.109938351209
43	22531 260 11 20 10 19 10 1.8513914730889 7.6106484103923 42.327590768014 233.36070603994
44	22791 259 11 20 10 19 10 3.9024381770133 13.830630612771 106.80303680325 1268.5892546222
45	23050 232 12 20 11 19 9 750.838140697 811.61667995088 7112.9593967189 5625420.5594587
46	23282 144 12 20 11 19 9 623.4 623.4 5610.6 3497648.04
47	23426 244 12 20 11 19 9 -0.028216740491334 1.9845780388545 9.925735237984 18.073960008279
48	23670 234 12 20 11 19 9 1.9217294326517 8.0653856214616 39.807524111181 217.64511384187
49	23904 232 12 20 11 19 9 4.1564618187956 13.867516324623 95.92878008943 1133.2522184602
50	24136 208 13 20 12 19 8 238.36776095717 286.22312748007 2040.4573359714 522610.69262675
51	24344 128 13 20 12 19 8 826.6 826.6 6612.8 5466140.48
52	24472 217 13 20 12 19 8 -0.075881307774688 2.0393743380392 9.6351731980522 18.781948451009
53	24689 207 13 20 12 19 8 1.7654325227853 8.3036721827022 37.712980667735 222.76294206027
54	24896 205 13 20 12 19 8 3.9706238567036 13.783397082763 79.646850025457 898.12771961184
55	25101 112 14 20 13 19 7 623.4 623.4 4363.8 2720392.92
56	25213 178 14 20 13 19 7 38.36469348464 74.14800159051 355.61622627301 19184.569300576
57	25391 187 14 20 13 19 7 0.00062078487360751 2.0735771494522 9.8127732260597 18.663595718681
58	25578 179 14 20 13 19 7 2.0188763322648 8.4306168642374 35.663326019491 217.74395085381
59	25757 181 14 20 13 19 7 3.9853952824664 13.857309707457 66.995266098013 729.35988109453
60	25938 90 15 20 14 19 6 26.6 26.6 159.6 4245.36
61	26028 156 15 20 14 19 6 388.49745262752 411.64691181547 2421.570364861 977758.24850885
62	26184 158 15 20 14 19 6 0.082817523850677 2.0385032999888 9.8719144249904 19.187359857427
63	26342 156 15 20 14 19 6 2.3008705994597 8.5966753711527 34.025877282369 219.12760947061
64	26498 156 15 20 14 19 6 3.9614284594792 13.851235643663 54.09617936365 556.41849517577
65	26654 130 16 20 15 19 5 196.95664163076 211.66772971701 1032.614433597 213415.46910881
66	26784 80 16 20 15 19 5 623.4 623.4 3117 1943137.8
67	26864 130 16 20 15 19 5 1.8185280584272 2.1142031355831 9.8898071841833 19.622911357195
68	26994 130 16 20 15 19 5 4.4516591750969 8.0941915366985 32.13157256066 215.06732160874
69	27124 130 16 20 15 19 5 3.8004325452788 11.435843977827 37.961879586792 324.83934231286
70	27254 103 17 20 16 19 4 603.0641077964 611.63982373774 2434.7089576185 1482001.0855024
71	27357 64 17 20 16 19 4 423.4 423.4 1693.6 717070.24
72	27421 104 17 20 16 19 4 1.8042800794751 2.0572862030752 7.6354114325484 14.60880791906
73	27525 104 17 20 16 19 4 3.9862190109624 7.0023755230125 22.141095743269 128.42065106962
74	27629 104 17 20 16 19 4 3.9627340304695 9.6784174930986 27.02073927549 200.76794172969
75	27733 76 18 20 17 19 3 608.42805501588 611.6183130357 1831.6646810873 1118338.6198117
76	27809 45 18 20 17 19 3 23.4 23.4 70.2 1642.68
77	27854 78 18 20 17 19 3 1.7559184147394 2.0174821863859 5.7156834626291 10.925946565697
78	27932 77 18 20 17 19 3 3.8231426156341 6.3664114470516 15.296661458474 81.23016012474
79	28009 77 18 20 17 19 3 4.2510317746147 8.1015465207065 18.547871171122 122.08798099291
80	28086 32 19 20 18 19 2 623.4 623.4 1246.8 777255.12
81	28118 52 19 20 18 19 2 638.38822921651 638.38822921651 1276.776458433 815079.06240437
82	28170 52 19 20 18 19 2 1.9062536449055 1.9442611011863 3.8505147460918 7.4139541883016
83	28222 52 19 20 18 19 2 4.3337366291646 5.2718488770366 9.6055855062011 46.573663753274
84	28274 52 19 20 18 19 2 4.1236571908097 5.9565213781369 10.080178568947 52.484695555519
85	28326 26 20 20 19 19 1 411.63459553151 411.63459553151 411.63459553151 169443.04023839
86	28352 16 20 20 19 19 1 823.4 823.4 823.4 677987.56
87	28368 26 20 20 19 19 1 1.8328641873272 1.8328641873272 1.8328641873272 3.3593911291866
88	28394 26 20 20 19 19 1 4.0479820087809 4.0479820087809 4.0479820087809 16.386158343414
89	28420 26 20 20 19 19 1 4.1896819391857 4.1896819391857 4.1896819391857 17.553434751539
vector 90 TestScenario.uninfected[19].veinsmobility posx ETV
vector 91 TestScenario.uninfected[19].veinsmobility posy ETV
vector 92 TestScenario.uninfected[17].veinsmobility acceleration ETV
vector 93 TestScenario.uninfected[17].veinsmobility co2emission ETV
vector 94 TestScenario.uninfected[18].veinsmobility speed ETV
vector 95 TestScenario.uninfected[20].veinsmobility posx ETV
vector 96 TestScenario.uninfected[20].veinsmobility posy ETV
vector 97 TestScenario.uninfected[18].veinsmobility acceleration ETV
vector 98 TestScenario.uninfected[18].veinsmobility co2emission ETV
vector 99 TestScenario.uninfected[19].veinsmobility speed ETV
vector 100 TestScenario.uninfected[21].veinsmobility posx ETV
vector 101 TestScenario.uninfected[21].veinsmobility posy ETV
vector 102 TestScenario.uninfected[19].veinsmobility acceleration ETV
vector 103 TestScenario.uninfected[19].veinsmobility co2emission ETV
vector 104 TestScenario.uninfected[20].veinsmobility speed ETV
vector 105 TestScenario.uninfected[22].veinsmobility posx ETV
vector 106 TestScenario.uninfected[22].veinsmobility posy ETV
vector 107 TestScenario.uninfected[20].veinsmobility acceleration ETV
vector 108 TestScenario.uninfected[20].veinsmobility co2emission ETV
vector 109 TestScenario.uninfected[21].veinsmobility speed ETV
vector 110 TestScenario.uninfected[23].veinsmobility posx ETV
vector 111 TestScenario.uninfected[23].veinsmobility posy ETV
vector 112 TestScenario.uninfected[21].veinsmobility acceleration ETV
vector 113 TestScenario.uninfected[21].veinsmobility co2emission ETV
vector 114 TestScenario.uninfected[22].veinsmobility speed ETV
vector 115 TestScenario.uninfected[24].veinsmobility posx ETV
vector 116 TestScenario.uninfected[24].veinsmobility posy ETV
vector 117 TestScenario.uninfected[22].veinsmobility acceleration ETV
vector 118 TestScenario.uninfected[22].veinsmobility co2emission ETV
vector 119 TestScenario.uninfected[23].veinsmobility speed ETV
vector 120 TestScenario.uninfected[25].veinsmobility posx ETV
vector 121 TestScenario.uninfected[25].veinsmobility posy ETV
vector 122 TestScenario.uninfected[23].veinsmobility acceleration ETV
vector 123 TestScenario.uninfected[23].veinsmobility co2emission ETV
vector 124 TestScenario.uninfected[24].veinsmobility speed ETV
vector 125 TestScenario.exploited[26].veinsmobility posx ETV
vector 126 TestScenario.exploited[26].veinsmobility posy ETV
vector 127 TestScenario.uninfected[24].veinsmobility acceleration ETV
vector 128 TestScenario.uninfected[24].veinsmobility co2emission ETV
vector 129 TestScenario.uninfected[25].veinsmobility speed ETV
vector 130 TestScenario.uninfected[27].veinsmobility posx ETV
vector 131 TestScenario.uninfected[27].veinsmobility posy ETV
vector 132 TestScenario.uninfected[25].veinsmobility acceleration ETV
vector 133 TestScenario.uninfected[25].veinsmobility co2emission ETV
vector 134 TestScenario.exploited[26].veinsmobility speed ETV
vector 135 TestScenario.uninfected[28].veinsmobility posx ETV
vector 136 TestScenario.uninfected[28].veinsmobility posy ETV
vector 137 TestScenario.exploited[26].veinsmobility acceleration ETV
vector 138 TestScenario.exploited[26].veinsmobility co2emission ETV
vector 139 TestScenario.uninfected[27].veinsmobility speed ETV
vector 140 TestScenario.uninfected[29].veinsmobility posx ETV
vector 141 TestScenario.uninfected[29].veinsmobility posy ETV
vector 142 TestScenario.uninfected[27].veinsmobility acceleration ETV
vector 143 TestScenario.uninfected[27].veinsmobility co2emission ETV
vector 144 TestScenario.uninfected[28].veinsmobility speed ETV
vector 145 TestScenario.uninfected[30].veinsmobility posx ETV
vector 146 TestScenario.uninfected[30].veinsmobility posy ETV
vector 147 TestScenario.uninfected[28].veinsmobility acceleration ETV
vector 148 TestScenario.uninfected[28].veinsmobility co2emission ETV
vector 149 TestScenario.uninfected[29].veinsmobility speed ETV
vector 150 TestScenario.uninfected[31].veinsmobility posx ETV
vector 151 TestScenario.uninfected[31].veinsmobility posy ETV
vector 152 TestScenario.uninfected[29].veinsmobility acceleration ETV
vector 153 TestScenario.uninfected[29].veinsmobility co2emission ETV
vector 154 TestScenario.uninfected[30].veinsmobility speed ETV
vector 155 TestScenario.uninfected[32].veinsmobility posx ETV
vector 156 TestScenario.uninfected[32].veinsmobility posy ETV
vector 157 TestScenario.uninfected[30].veinsmobility acceleration ETV
vector 158 TestScenario.uninfected[30].veinsmobility co2emission ETV
vector 159 TestScenario.uninfected[31].veinsmobility speed ETV
vector 160 TestScenario.uninfected[33].veinsmobility posx ETV
vector 161 TestScenario.uninfected[33].veinsmobility posy ETV
vector 162 TestScenario.uninfected[31].veinsmobility acceleration ETV
vector 163 TestScenario.uninfected[31].veinsmobility co2emission ETV
vector 164 TestScenario.uninfected[32].veinsmobility speed ETV
vector 165 TestScenario.uninfected[34].veinsmobility posx ETV
vector 166 TestScenario.uninfected[34].veinsmobility posy ETV
vector 167 TestScenario.uninfected[32].veinsmobility acceleration ETV
vector 168 TestScenario.uninfected[32].veinsmobility co2emission ETV
vector 169 TestScenario.uninfected[33].veinsmobility speed ETV
vector 170 TestScenario.exploited[35].veinsmobility posx ETV
vector 171 TestScenario.exploited[35].veinsmobility posy ETV
vector 172 TestScenario.uninfected[33].veinsmobility acceleration ETV
vector 173 TestScenario.uninfected[33].veinsmobility co2emission ETV
vector 174 TestScenario.uninfected[34].veinsmobility speed ETV
vector 175 TestScenario.uninfected[36].veinsmobility posx ETV
vector 176 TestScenario.uninfected[36].veinsmobility posy ETV
vector 177 TestScenario.uninfected[34].veinsmobility acceleration ETV
vector 178 TestScenario.uninfected[34].veinsmobility co2emission ETV
vector 179 TestScenario.exploited[35].veinsmobility speed ETV
vector 180 TestScenario.uninfected[37].veinsmobility posx ETV
vector 181 TestScenario.uninfected[37].veinsmobility posy ETV
vector 182 TestScenario.exploited[35].veinsmobility acceleration ETV
vector 183 TestScenario.exploited[35].veinsmobility co2emission ETV
vector 184 TestScenario.uninfected[36].veinsmobility speed ETV
vector 185 TestScenario.uninfected[38].veinsmobility posx ETV
vector 186 TestScenario.uninfected[38].veinsmobility posy ETV
vector 187 TestScenario.uninfected[36].veinsmobility acceleration ETV
vector 188 TestScenario.uninfected[36].veinsmobility co2emission ETV
vector 189 TestScenario.uninfected[37].veinsmobility speed ETV
123	35046 376 27 40 26 39 14 1.7046288362581 7.7752466972646 50.040227565199 242.19034090679
122	35422 398 27 40 26 39 14 -0.09373022872256 2.0943918044725 9.8470963420263 18.571075472381
119	35820 402 26 40 25 39 15 3.986859580019 13.878134806112 177.6361477819 2258.2020982643
111	36222 272 25 40 24 39 16 823.4 823.4 13174.4 10847800.96
110	36494 429 25 40 24 39 16 453.1077688571 611.63002841965 8771.1634966872 4853461.0570222
vector 190 TestScenario.uninfected[39].veinsmobility posx ETV
vector 191 TestScenario.uninfected[39].veinsmobility posy ETV
vector 192 TestScenario.uninfected[37].veinsmobility acceleration ETV
vector 193 TestScenario.uninfected[37].veinsmobility co2emission ETV
vector 194 TestScenario.uninfected[38].veinsmobility speed ETV
vector 195 TestScenario.exploited[40].veinsmobility posx ETV
vector 196 TestScenario.exploited[40].veinsmobility posy ETV
vector 197 TestScenario.uninfected[38].veinsmobility acceleration ETV
vector 198 TestScenario.uninfected[38].veinsmobility co2emission ETV
vector 199 TestScenario.uninfected[39].veinsmobility speed ETV
vector 200 TestScenario.uninfected[39].veinsmobility acceleration ETV
vector 201 TestScenario.uninfected[39].veinsmobility co2emission ETV
vector 202 TestScenario.exploited[40].veinsmobility speed ETV
vector 203 TestScenario.uninfected[41].veinsmobility posx ETV
vector 204 TestScenario.uninfected[41].veinsmobility posy ETV
vector 205 TestScenario.uninfected[42].veinsmobility posx ETV
vector 206 TestScenario.uninfected[42].veinsmobility posy ETV
vector 207 TestScenario.exploited[40].veinsmobility acceleration ETV
vector 208 TestScenario.exploited[40].veinsmobility co2emission ETV
vector 209 TestScenario.uninfected[43].veinsmobility posx ETV
vector 210 TestScenario.uninfected[43].veinsmobility posy ETV
vector 211 TestScenario.uninfected[41].veinsmobility speed ETV
vector 212 TestScenario.uninfected[42].veinsmobility speed ETV
vector 213 TestScenario.uninfected[44].veinsmobility posx ETV
vector 214 TestScenario.uninfected[44].veinsmobility posy ETV
vector 215 TestScenario.uninfected[41].veinsmobility acceleration ETV
vector 216 TestScenario.uninfected[41].veinsmobility co2emission ETV
vector 217 TestScenario.uninfected[42].veinsmobility acceleration ETV
vector 218 TestScenario.uninfected[42].veinsmobility co2emission ETV
vector 219 TestScenario.uninfected[43].veinsmobility speed ETV
vector 220 TestScenario.uninfected[45].veinsmobility posx ETV
vector 221 TestScenario.uninfected[45].veinsmobility posy ETV
vector 222 TestScenario.uninfected[43].veinsmobility acceleration ETV
vector 223 TestScenario.uninfected[43].veinsmobility co2emission ETV
vector 224 TestScenario.uninfected[44].veinsmobility speed ETV
vector 225 TestScenario.uninfected[46].veinsmobility posx ETV
vector 226 TestScenario.uninfected[46].veinsmobility posy ETV
vector 227 TestScenario.uninfected[44].veinsmobility acceleration ETV
vector 228 TestScenario.uninfected[44].veinsmobility co2emission ETV
vector 229 TestScenario.uninfected[45].veinsmobility speed ETV
vector 230 TestScenario.uninfected[47].veinsmobility posx ETV
vector 231 TestScenario.uninfected[47].veinsmobility posy ETV
vector 232 TestScenario.uninfected[45].veinsmobility acceleration ETV
vector 233 TestScenario.uninfected[45].veinsmobility co2emission ETV
vector 234 TestScenario.uninfected[46].veinsmobility speed ETV
vector 235 TestScenario.uninfected[48].veinsmobility posx ETV
vector 236 TestScenario.uninfected[48].veinsmobility posy ETV
vector 237 TestScenario.uninfected[46].veinsmobility acceleration ETV
vector 238 TestScenario.uninfected[46].veinsmobility co2emission ETV
vector 239 TestScenario.uninfected[47].veinsmobility speed ETV
vector 240 TestScenario.uninfected[49].veinsmobility posx ETV
vector 241 TestScenario.uninfected[49].veinsmobility posy ETV
vector 242 TestScenario.uninfected[47].veinsmobility acceleration ETV
vector 243 TestScenario.uninfected[47].veinsmobility co2emission ETV
vector 244 TestScenario.uninfected[48].veinsmobility speed ETV
vector 245 TestScenario.uninfected[50].veinsmobility posx ETV
vector 246 TestScenario.uninfected[50].veinsmobility posy ETV
vector 247 TestScenario.uninfected[48].veinsmobility acceleration ETV
vector 248 TestScenario.uninfected[48].veinsmobility co2emission ETV
vector 249 TestScenario.uninfected[49].veinsmobility speed ETV
23	40890 789 21 52 20 51 32 0.973 7.8317982030417 80.912165076093 293.8302364473
22	41679 893 21 52 20 51 32 -3.235061710763 2.1576685157395 -0.050420192363671 44.035787797939
19	42572 831 21 52 20 51 32 4.5412658721327 13.885503359863 397.12665757848 5173.8184973349
11	43403 698 21 52 20 51 32 223.4 438.038934057 8948.9379765116 2663616.1640568
10	44101 659 21 52 20 51 32 54.564339912623 226.6 6079.3013000208 1250244.4299532
vector 250 TestScenario.uninfected[51].veinsmobility posx ETV
vector 251 TestScenario.uninfected[51].veinsmobility posy ETV
vector 252 TestScenario.uninfected[49].veinsmobility acceleration ETV
vector 253 TestScenario.uninfected[49].veinsmobility co2emission ETV
vector 254 TestScenario.uninfected[50].veinsmobility speed ETV
vector 255 TestScenario.uninfected[50].veinsmobility acceleration ETV
vector 256 TestScenario.uninfected[50].veinsmobility co2emission ETV
vector 257 TestScenario.uninfected[51].veinsmobility speed ETV
vector 258 TestScenario.uninfected[51].veinsmobility acceleration ETV
vector 259 TestScenario.uninfected[51].veinsmobility co2emission ETV
vector 260 TestScenario.exploited[52].veinsmobility posx ETV
vector 261 TestScenario.exploited[52].veinsmobility posy ETV
vector 262 TestScenario.exploited[52].veinsmobility speed ETV
vector 263 TestScenario.uninfected[53].veinsmobility posx ETV
vector 264 TestScenario.uninfected[53].veinsmobility posy ETV
vector 265 TestScenario.uninfected[54].veinsmobility posx ETV
vector 266 TestScenario.uninfected[54].veinsmobility posy ETV
vector 267 TestScenario.uninfected[55].veinsmobility posx ETV
vector 268 TestScenario.uninfected[55].veinsmobility posy ETV
vector 269 TestScenario.uninfected[56].veinsmobility posx ETV
vector 270 TestScenario.uninfected[56].veinsmobility posy ETV
vector 271 TestScenario.exploited[52].veinsmobility acceleration ETV
vector 272 TestScenario.exploited[52].veinsmobility co2emission ETV
vector 273 TestScenario.uninfected[57].veinsmobility posx ETV
vector 274 TestScenario.uninfected[57].veinsmobility posy ETV
vector 275 TestScenario.uninfected[53].veinsmobility speed ETV
vector 276 TestScenario.uninfected[54].veinsmobility speed ETV
vector 277 TestScenario.uninfected[55].veinsmobility speed ETV
vector 278 TestScenario.uninfected[56].veinsmobility speed ETV
vector 279 TestScenario.uninfected[58].veinsmobility posx ETV
vector 280 TestScenario.uninfected[58].veinsmobility posy ETV
vector 281 TestScenario.uninfected[53].veinsmobility acceleration ETV
vector 282 TestScenario.uninfected[53].veinsmobility co2emission ETV
vector 283 TestScenario.uninfected[54].veinsmobility acceleration ETV
vector 284 TestScenario.uninfected[54].veinsmobility co2emission ETV
vector 285 TestScenario.uninfected[55].veinsmobility acceleration ETV
vector 286 TestScenario.uninfected[55].veinsmobility co2emission ETV
vector 287 TestScenario.uninfected[56].veinsmobility acceleration ETV
vector 288 TestScenario.uninfected[56].veinsmobility co2emission ETV
vector 289 TestScenario.uninfected[57].veinsmobility speed ETV
vector 290 TestScenario.uninfected[59].veinsmobility posx ETV
vector 291 TestScenario.uninfected[59].veinsmobility posy ETV
vector 292 TestScenario.uninfected[57].veinsmobility acceleration ETV
vector 293 TestScenario.uninfected[57].veinsmobility co2emission ETV
vector 294 TestScenario.uninfected[58].veinsmobility speed ETV
vector 295 TestScenario.uninfected[60].veinsmobility posx ETV
vector 296 TestScenario.uninfected[60].veinsmobility posy ETV
vector 297 TestScenario.uninfected[58].veinsmobility acceleration ETV
vector 298 TestScenario.uninfected[58].veinsmobility co2emission ETV
vector 299 TestScenario.uninfected[59].veinsmobility speed ETV
53	48065 1019 21 62 20 61 42 0.973 7.6527521992787 118.33535811203 495.68244074764
52	49084 1146 21 62 20 61 42 -3.3395682071182 2.1001227886888 0.061495303313714 89.249196336102
49	50230 1090 21 62 20 61 42 3.4841223518603 13.887866197138 478.09238698954 5905.9239362032
41	51320 926 21 62 20 61 42 529.08167916863 799.27509716926 27082.02807353 17616331.750326
40	52246 871 21 62 20 61 42 423.4 623.4 22564.214015007 12429083.038906
vector 300 TestScenario.uninfected[61].veinsmobility posx ETV
vector 301 TestScenario.uninfected[61].veinsmobility posy ETV
vector 302 TestScenario.uninfected[59].veinsmobility acceleration ETV
vector 303 TestScenario.uninfected[59].veinsmobility co2emission ETV
vector 304 TestScenario.uninfected[60].veinsmobility speed ETV
73	53448 1074 21 63 20 62 43 0.973 8.0277066391863 111.09243045498 419.50092728585
72	54522 1198 21 63 20 62 43 -4.4915881423885 2.0696088717785 2.39365444691 53.565150113339
69	55720 1111 21 63 20 62 43 3.8868942585448 13.887520042215 539.25935482799 7064.7043967513
61	56831 949 21 63 20 62 43 26.6 377.87632512767 5839.4434973494 1400012.47856
60	57780 819 21 63 20 62 43 26.6 200.7269408562 2352.488258659 238077.8032614
vector 305 TestScenario.uninfected[60].veinsmobility acceleration ETV
vector 306 TestScenario.uninfected[60].veinsmobility co2emission ETV
vector 307 TestScenario.uninfected[61].veinsmobility speed ETV
vector 308 TestScenario.uninfected[62].veinsmobility posx ETV
vector 309 TestScenario.uninfected[62].veinsmobility posy ETV
vector 310 TestScenario.uninfected[61].veinsmobility acceleration ETV
vector 311 TestScenario.uninfected[61].veinsmobility co2emission ETV
88	59071 1125 21 65 20 64 45 0.973 8.3323614773905 127.88841286973 537.11317455482
87	60196 1255 21 65 20 64 45 -3.3353364771753 2.3429769483604 7.9040403013879 61.47950626822
84	61451 1167 21 65 20 64 45 4.4181510747612 13.886215206874 565.18966937423 7393.4641166353
76	62618 839 21 65 20 64 45 23.4 194.01827420597 2206.637079034 213589.38678205
75	63457 1037 21 65 20 64 45 223.4 603.31318949186 15903.762310381 6407980.9732054
vector 312 TestScenario.uninfected[63].veinsmobility posx ETV
vector 313 TestScenario.uninfected[63].veinsmobility posy ETV
vector 314 TestScenario.uninfected[64].veinsmobility posx ETV
vector 315 TestScenario.uninfected[64].veinsmobility posy ETV
vector 316 TestScenario.uninfected[62].veinsmobility speed ETV
vector 317 TestScenario.uninfected[65].veinsmobility posx ETV
vector 318 TestScenario.uninfected[65].veinsmobility posy ETV
vector 319 TestScenario.uninfected[62].veinsmobility acceleration ETV
vector 320 TestScenario.uninfected[62].veinsmobility co2emission ETV
vector 321 TestScenario.uninfected[63].veinsmobility speed ETV
vector 322 TestScenario.uninfected[64].veinsmobility speed ETV
vector 323 TestScenario.uninfected[66].veinsmobility posx ETV
vector 324 TestScenario.uninfected[66].veinsmobility posy ETV
vector 325 TestScenario.uninfected[63].veinsmobility acceleration ETV
vector 326 TestScenario.uninfected[63].veinsmobility co2emission ETV
vector 327 TestScenario.uninfected[64].veinsmobility acceleration ETV
vector 328 TestScenario.uninfected[64].veinsmobility co2emission ETV
vector 329 TestScenario.uninfected[65].veinsmobility speed ETV
vector 330 TestScenario.uninfected[65].veinsmobility acceleration ETV
vector 331 TestScenario.uninfected[65].veinsmobility co2emission ETV
vector 332 TestScenario.uninfected[66].veinsmobility speed ETV
18	65882 1220 21 69 20 68 49 0.973 8.9053202871215 137.26327683189 560.98472538728
17	67102 1355 21 69 20 68 49 -3.2117487339241 2.2987510129251 7.7126322279834 70.492418186526
14	68457 1268 21 69 20 68 49 3.7415080421728 13.888141771904 601.12245525912 7794.6260986987
6	69725 1083 21 69 20 68 49 423.4 826.6 28112.833883245 17186049.738141
5	70808 932 21 69 20 68 49 452.00423935547 626.6 29474.493936543 17843105.753008
vector 333 TestScenario.uninfected[67].veinsmobility posx ETV
vector 334 TestScenario.uninfected[67].veinsmobility posy ETV
vector 335 TestScenario.uninfected[68].veinsmobility posx ETV
vector 336 TestScenario.uninfected[68].veinsmobility posy ETV
vector 337 TestScenario.uninfected[66].veinsmobility acceleration ETV
vector 338 TestScenario.uninfected[66].veinsmobility co2emission ETV
vector 339 TestScenario.uninfected[69].veinsmobility posx ETV
vector 340 TestScenario.uninfected[69].veinsmobility posy ETV
vector 341 TestScenario.uninfected[67].veinsmobility speed ETV
vector 342 TestScenario.uninfected[68].veinsmobility speed ETV
vector 343 TestScenario.uninfected[67].veinsmobility acceleration ETV
vector 344 TestScenario.uninfected[67].veinsmobility co2emission ETV
vector 345 TestScenario.uninfected[68].veinsmobility acceleration ETV
vector 346 TestScenario.uninfected[68].veinsmobility co2emission ETV
vector 347 TestScenario.uninfected[69].veinsmobility speed ETV
vector 348 TestScenario.uninfected[70].veinsmobility posx ETV
vector 349 TestScenario.uninfected[70].veinsmobility posy ETV
vector 350 TestScenario.uninfected[71].veinsmobility posx ETV
vector 351 TestScenario.uninfected[71].veinsmobility posy ETV
vector 352 TestScenario.uninfected[69].veinsmobility acceleration ETV
vector 353 TestScenario.uninfected[69].veinsmobility co2emission ETV
33	73126 1292 21 73 20 72 53 0.973 8.6205799965359 139.77127418468 553.78229833033
32	74418 1470 21 73 20 72 53 -3.4325090029095 2.2108764071367 0.022150788728614 91.780354021835
29	75888 1374 21 73 20 72 53 3.5457310922653 13.887489674408 615.25081627357 7777.3072342983
21	77262 1243 21 73 20 72 53 31.324639717308 426.6 13700.202674742 4771037.5573121
20	78505 1017 21 73 20 72 53 623.4 795.00119592827 34224.936291542 22211639.457516
vector 354 TestScenario.uninfected[72].veinsmobility posx ETV
vector 355 TestScenario.uninfected[72].veinsmobility posy ETV
vector 356 TestScenario.uninfected[70].veinsmobility speed ETV
vector 357 TestScenario.uninfected[71].veinsmobility speed ETV
128	79776 1212 28 74 27 73 47 0.973 8.4085552115074 132.53056228732 555.27551305899
127	80988 1357 28 74 27 73 47 -3.1609806812119 2.1891738592181 9.5939341553292 63.889320178521
124	82345 1290 27 74 26 73 48 3.5200133527815 13.882164987109 568.37832346043 7267.7306970426
116	83635 1317 26 74 25 73 49 430.68719191127 797.7323608711 28075.266410504 16618851.977544
115	84952 795 26 74 25 73 49 23.4 26.6 1208.8256161775 29939.191218591
vector 358 TestScenario.uninfected[73].veinsmobility posx ETV
vector 359 TestScenario.uninfected[73].veinsmobility posy ETV
vector 360 TestScenario.uninfected[70].veinsmobility acceleration ETV
vector 361 TestScenario.uninfected[70].veinsmobility co2emission ETV
vector 362 TestScenario.uninfected[71].veinsmobility acceleration ETV
vector 363 TestScenario.uninfected[71].veinsmobility co2emission ETV
vector 364 TestScenario.uninfected[72].veinsmobility speed ETV
vector 365 TestScenario.uninfected[74].veinsmobility posx ETV
vector 366 TestScenario.uninfected[74].veinsmobility posy ETV
vector 367 TestScenario.uninfected[72].veinsmobility acceleration ETV
vector 368 TestScenario.uninfected[72].veinsmobility co2emission ETV
vector 369 TestScenario.uninfected[73].veinsmobility speed ETV
43	86550 1338 21 76 20 75 56 0.973 9.0589950955871 163.62623217316 742.13267740942
42	87888 1535 21 76 20 75 56 -4.4863585694134 2.2156701630075 0.023137009683996 128.87039693629
39	89423 1454 21 76 20 75 56 3.6135514888028 13.885528955983 640.16229498784 7925.4575285889
31	90877 1084 21 76 20 75 56 623.4 823.4 37879.977745361 25947118.834928
30	91961 1299 21 76 20 75 56 426.6 619.19329088215 27782.812633923 14050356.911155
68	93260 1403 21 76 20 75 56 0.973 8.6384710401622 130.38234072325 412.2684219812
67	94663 1565 21 76 20 75 56 -3.2269973318677 2.1344820118767 0.021401118603535 46.968848618948
64	96228 1453 21 76 20 75 56 3.5579227411076 13.888971277256 728.23941319021 9753.1672889616
56	97681 1322 21 76 20 75 56 87.22882045592 626.6 24265.79628384 12354059.412518
55	99003 1054 21 76 20 75 56 623.4 801.08945606797 36155.839617928 23467619.684963
vector 370 TestScenario.uninfected[75].veinsmobility posx ETV
vector 371 TestScenario.uninfected[75].veinsmobility posy ETV
vector 372 TestScenario.uninfected[73].veinsmobility acceleration ETV
vector 373 TestScenario.uninfected[73].veinsmobility co2emission ETV
vector 374 TestScenario.uninfected[74].veinsmobility speed ETV
63	100388 1407 21 78 20 76 57 0.973 7.7208952410329 146.58675966424 561.63494263254
62	101795 1588 21 78 20 76 57 -4.4109991649748 2.0690783901024 -0.041374728088266 84.148638962758
59	103383 1464 21 78 20 76 57 3.583265462276 13.8882083526 691.76769655487 8925.8178265149
51	104847 1209 21 78 20 76 57 457.22904990484 826.6 41915.831137958 31634271.6419
50	106056 1195 21 78 20 76 57 226.6 419.33045742646 16336.515128857 4979030.7137334
vector 375 TestScenario.exploited[76].veinsmobility posx ETV
vector 376 TestScenario.exploited[76].veinsmobility posy ETV
vector 377 TestScenario.uninfected[74].veinsmobility acceleration ETV
vector 378 TestScenario.uninfected[74].veinsmobility co2emission ETV
vector 379 TestScenario.uninfected[75].veinsmobility speed ETV
0	107580 1135 21 79 20 77 58 423.4 620.7820249103 28049.226829006 13923073.079131
1	108715 1204 21 79 20 77 58 36.353186713675 427.26921494618 18737.588213974 7046974.6287435
2	109919 1064 21 79 20 77 58 26.6 226.6 7900.0247385311 1543350.1230003
3	110983 1272 21 79 20 77 58 352.49509055637 822.78615536748 35200.52700599 22178529.645404
4	112255 1440 21 79 20 77 58 0 13.889471060962 581.18948058521 7260.2378776073
7	113695 1513 21 79 20 77 58 -4.5 2.6 -7.4187081076414 112.81769169685
8	115208 1285 21 79 20 77 58 0.973 8.8613926317076 141.36381458221 535.08293602168
9	116493 1444 21 79 20 77 58 4.1799826990913 13.887312619174 683.54432451612 8534.7211913032
12	117937 1590 21 79 20 77 58 -4.4901249105111 2.2429461084306 9.9088845697301 114.83398057387
13	119527 1411 21 79 20 77 58 0.973 8.411995635866 179.39401077347 834.35540779251
15	120938 1179 21 79 20 77 58 426.6 626.6 31015.957826488 17043715.738966
16	122117 1283 21 79 20 77 58 242.34321754962 652.86376266034 25285.36529344 11508177.185743
24	123400 1470 21 79 20 77 58 0 13.88905346809 607.43500923051 7603.0355048654
25	124870 1453 21 79 20 77 58 284.94724334598 826.6 33891.269030136 21433032.550744
26	126323 1007 21 79 20 77 58 223.4 281.34411207967 13134.597328791 2980782.99029
27	127330 1583 21 79 20 77 58 -4.4241312764557 2.0458876088308 -9.1355304474446 124.54945997857
28	128913 1362 21 79 20 77 58 0.973 7.8821935678298 141.4360204607 536.78350791782
34	130275 1498 21 79 20 77 58 1.7436803064668 13.881147896685 610.03057389014 7349.689273366
35	131773 1194 21 79 20 77 58 443.51597983192 709.7511394886 35076.428992692 21415457.240121
36	132967 1259 21 79 20 77 58 23.4 423.4 11286.203379082 3673697.9358262
37	134226 1586 21 79 20 77 58 -3.376498927553 2.1401719784713 -0.037871435896962 153.85236879687
38	135812 1363 21 79 20 77 58 0.973 8.0117311855897 169.60920768557 755.93919361155
44	137175 1503 21 79 20 77 58 3.9572091338879 13.872800218579 663.43726810231 8199.7967570745
45	138678 1391 21 79 20 77 58 226.6 737.02904188165 24960.8713268 12385237.177695
46	140069 1048 21 79 20 77 58 493.56122135247 623.4 35461.950360648 21735437.908555
47	141117 1607 21 79 20 77 58 -3.2784196278387 2.5470132255505 -7.3953719365251 104.35157238127
48	142724 1372 21 79 20 77 58 0.973 8.6832465528845 146.39442890267 568.08885572017
54	144096 1505 21 79 20 77 58 3.7013248569434 13.887227419673 652.384151799 7994.3642148936
57	145601 1593 21 79 20 77 58 -3.3253081651793 2.5371996467444 0.02565643358976 134.05555375724
58	147194 1373 21 79 20 77 58 0.973 7.8359260904388 168.50735706005 762.42405702846
65	148567 1290 21 79 20 77 58 26.6 217.699 6183.0915344264 995203.90463019
66	149857 1106 21 79 20 77 58 426.6 623.4 29328.276893294 15273856.603969
70	150963 1481 21 79 20 77 58 23.4 595.78243813947 16338.112018951 6383331.8030061
71	152444 968 21 79 20 77 58 423.4 447.98177770416 24602.673191502 10436872.130242
74	153412 1412 21 79 20 77 58 0 13.886808744448 540.34541564853 6638.1532694944
77	154824 1504 21 79 20 77 58 -4.3192771165495 2.4753355776891 -9.6784174930986 125.08174000901
78	156328 1281 21 79 20 77 58 0.973 9.088578226111 146.34524622705 648.26786188856
79	157609 1497 21 79 20 77 58 3.9485115820103 13.8870143887 608.64496780672 7045.4598580169
80	159106 948 21 79 20 77 58 623.4 626.6 36285.709393978 22701033.594323
81	160054 1494 21 79 20 77 58 306.09029045989 818.63721299462 36169.689645001 23927076.623913
82	161548 1572 21 79 20 77 58 -3.4502938546416 2.3716364014568 4.7800166144392 126.49162141825
83	163120 1352 21 79 20 77 58 0.973 7.9460019961395 175.91358263764 806.51956097955
85	164472 1116 21 79 20 77 58 223.4 411.63459553151 14884.226358995 4013371.7213538
86	165588 1340 21 79 20 77 58 431.2276994986 823.4 38074.90906414 26336748.889978
89	166928 1503 21 79 20 77 58 3.5394190322235 13.888416356484 711.11569312077 9268.5273488452
90	168431 1197 21 79 20 77 58 638.35955857064 826.6 45662.004501073 36167884.891157
91	169628 1259 21 79 20 77 58 423.4 826.6 38459.924254543 26968827.611578
92	170887 1622 21 79 20 77 58 -3.0891408634287 2.1411214851495 9.6566090088607 64.953787914223
93	172509 1448 21 79 20 77 58 0.973 8.3930140842098 154.697446358 597.078818845
94	173957 1486 21 79 20 77 58 3.5267794031277 13.888394262339 677.13415150018 8535.2701932249
95	175443 982 22 79 21 77 57 778.17280802793 826.6 46923.094518646 38631633.59894
96	176425 1421 22 79 21 77 57 23.4 419.19078968547 13810.176429368 4304485.8161217
97	177846 1575 22 79 21 77 57 -4.1717035139201 2.0848106457689 9.7538336440064 105.99621490682
98	179421 1395 22 79 21 77 57 0.973 8.0524667231101 168.48886218277 749.45376833913
99	180816 1476 22 79 21 77 57 4.0300919399699 13.889567791808 679.51539912788 8618.4230805617
100	182292 1349 23 79 22 77 56 238.35795385615 650.47312863954 23761.421711397 10676125.54057
101	183641 1135 23 79 22 77 56 26.6 226.6 7181.5336852995 1375864.2622182
102	184776 1598 23 79 22 77 56 -4.4947601385741 2.1346063348674 9.7766499769329 102.28521610266
103	186374 1448 23 79 22 77 56 0.973 8.5833853921476 167.20516811081 734.07620743916
104	187822 1494 23 79 22 77 56 3.239410945969 13.881860323176 643.69648423178 8045.7583512963
105	189316 1416 24 79 23 77 55 430.94443410477 626.6 30145.31485407 16801116.650205
106	190732 1024 24 79 23 77 55 572.59340616748 626.6 34243.075963926 21324793.187243
107	191756 1568 24 79 23 77 55 -4.4804341941467 2.1146757324645 9.7642005677386 105.90359225305
108	193324 1408 24 79 23 77 55 0.973 8.2812788275937 165.08868347693 743.5164503344
109	194732 1481 24 79 23 77 55 3.5618557962599 13.885442570765 625.20409603781 7730.8431355711
112	196213 1534 25 79 24 77 54 -3.0973397298768 2.5459246905125 10.020935091689 111.68722601591
113	197747 1373 25 79 24 77 54 0.973 8.3797438848903 165.95656996431 758.0477012248
114	199120 1415 25 79 24 77 54 0 13.888977302613 448.16344133013 5086.5272263794
117	200535 1461 26 79 25 77 53 -3.1389735177076 2.2280870730412 9.7996407197783 125.05847911432
118	201996 1245 26 79 25 77 53 0.973 8.4965775594914 154.2377029356 714.94615929182
120	203241 1203 27 79 26 77 52 26.6 456.12339554129 8295.0688732114 2408742.8538842
121	204444 1036 27 79 26 77 52 26.6 211.62083026368 3326.6185839942 418518.26387316
125	205480 1015 28 79 27 77 51 223.4 380.11609179302 12437.597788522 3117709.9343905
126	206495 1255 28 79 27 77 51 230.70299767137 426.6 17966.140088187 6584002.9665855
129	207750 1374 28 79 27 77 51 3.8817818003288 13.889670290884 632.80231987809 8260.8695946295
130	209124 870 29 79 28 77 50 423.4 426.6 21233.459947213 9017317.3406199
131	209994 1340 29 79 28 77 50 31.339084290679 402.88929420367 8725.8019191615 2089561.3883872
132	211334 1446 29 79 28 77 50 -4.4575265987526 2.0916550734243 9.6258910338978 71.281624607434
133	212780 1317 29 79 28 77 50 0.973 8.4045335305171 140.68600481905 561.1963544424
134	214097 1346 29 79 28 77 50 3.6139792524744 13.886526254779 549.11591048906 6670.9617875079
135	215443 1058 30 79 29 77 49 238.40049127761 426.6 18839.50518779 7451142.3383643
136	216501 1121 30 79 29 77 49 267.86201920084 626.6 25854.002845381 14339993.593347
137	217622 1387 30 79 29 77 49 -3.40367128511 2.4789382070419 7.3014992053941 116.5123082453
138	219009 1219 30 79 29 77 49 0.973 8.0327911359823 152.66678145013 731.23881727526
139	220228 1317 30 79 29 77 49 3.5495078303549 13.889320736504 565.46795289612 7117.1500906406
140	221545 1202 31 79 30 77 48 231.33090484683 423.4 16589.073223124 5964429.4878223
141	222747 935 31 79 30 77 48 423.4 530.58470697719 20875.876386185 9109200.8675925
142	223682 1377 31 79 30 77 48 -3.3591969947962 2.1359703505039 3.2826073593462 85.085452461076
143	225059 1221 31 79 30 77 48 0.973 8.4514595506527 131.94787559833 540.86654827263
144	226280 1289 31 79 30 77 48 1.7187605610063 13.889032822268 561.29739787735 7176.1653565011
145	227569 1267 32 79 31 77 47 335.14420837122 618.69352627379 23450.888311057 12003508.390934
146	228836 818 32 79 31 77 47 223.4 226.6 10563.213242713 2374189.6993849
147	229654 1350 32 79 31 77 47 -3.1173231362131 2.2115218827547 8.5000814005205 77.959843782817
148	231004 1203 32 79 31 77 47 0.973 7.9431064675863 133.81824631935 565.24134174015
149	232207 1267 32 79 31 77 47 3.5248433707561 13.889162013922 495.83975426808 5874.3858174309
150	233474 840 33 79 32 77 46 623.4 626.6 28752.034190134 17971398.44834
151	234314 1237 33 79 32 77 46 360.95471331598 619.36650703141 24013.892485101 12817263.111751
152	235551 1292 33 79 32 77 46 -3.3277905066674 2.0946107620979 9.7260820869397 107.69660908191
153	236843 1155 33 79 32 77 46 0.973 7.8781000907352 146.24588365032 688.77525045806
154	237998 1236 33 79 32 77 46 3.5333170656767 13.889716829786 485.36937489739 5753.1871717584
155	239234 973 34 79 33 77 45 238.37280346139 426.6 17157.027901278 6743955.3126444
156	240207 1032 34 79 33 77 45 497.75134228271 826.6 33104.640165312 24894315.178868
157	241239 1268 34 79 33 77 45 -3.1741059455888 2.364183618112 9.795765728957 106.49527208222
158	242507 1111 34 79 33 77 45 0.973 8.4283763539374 145.1203963498 710.54637772857
159	243618 1203 34 79 33 77 45 3.157953561468e-012 13.882224804121 459.95817771325 5753.1439041371
160	244821 973 35 79 34 77 44 632.301 826.6 33224.483438053 25379147.726228
161	245794 957 35 79 34 77 44 423.4 611.62937010851 20662.838036834 9903037.6538243
162	246751 1246 35 79 34 77 44 -3.0616510138897 2.2377738613312 9.6901957057769 78.591685543872
163	247997 1103 35 79 34 77 44 0.973 8.4784219152723 124.58603286001 541.50381674412
164	249100 1183 35 79 34 77 44 3.6658542102147 13.889966999968 532.16036028248 6842.2535845291
165	250283 1158 36 79 35 77 43 423.81807628809 619.12087068501 22030.561099114 11486275.798347
166	251441 765 36 79 35 77 43 23.4 29.273465983351 1081.1699207589 27297.756525895
167	252206 1233 36 79 35 77 43 -3.2929080920073 2.1716121752001 10.065633357371 66.5173044221
168	253439 1117 36 79 35 77 43 0.973 8.1966337917107 126.53133490955 540.755557141
169	254556 1085 36 79 35 77 43 0 13.886146731826 378.30205627856 4524.4006583706
170	255641 1128 37 79 36 77 42 430.84596127459 811.6292448523 25588.037523866 16288650.184058
171	256769 724 37 79 36 77 42 623.4 626.6 26196.708077451 16339740.298801
172	257493 1130 37 79 36 77 42 -3.367821688985 2.0419148954446 -4.2279627798071 98.6010381483
173	258623 973 37 79 36 77 42 0.973 8.4883193145054 110.5322651985 493.94238183202
174	259596 1121 37 79 36 77 42 0.44579789934098 13.881434202057 387.92450588335 4443.9088303545
175	260717 877 38 79 37 77 41 626.6 823.4 31089.123534782 23828557.305278
176	261594 946 38 79 37 77 41 638.37459129179 823.4 31665.88756116 24634206.846912
177	262540 1156 38 79 37 77 41 -3.2430521789588 2.2268534929927 2.9403062909673 109.1116970931
178	263696 996 38 79 37 77 41 0.973 7.9503833053879 118.48687014954 511.40635320634
179	264692 1104 38 79 37 77 41 3.6098785398109 13.858789192848 423.73399766157 4950.3880407511
180	265796 680 39 79 38 77 40 623.4 623.4 24936 15545102.4
181	266476 1078 39 79 38 77 40 38.399667740717 512.47109605782 10333.487499824 3558741.1728784
182	267554 1131 39 79 38 77 40 -3.2851511784099 2.3954243315151 8.4657470858732 111.02918438176
183	268685 989 39 79 38 77 40 0.973 8.546587195659 131.37088291844 668.29154654501
184	269674 1076 39 79 38 77 40 3.8175596663821 13.870823204538 450.38002142693 5492.8970779249
185	270750 1049 40 79 39 77 39 38.347806267325 426.07533200795 8881.8459084256 2637354.9078099
186	271799 683 40 79 39 77 39 421.47267594434 426.6 16631.85053644 7092806.5053443
187	272482 1107 40 79 39 77 39 -4.4992507292307 2.1222726155654 9.6261341626965 109.39880672251
188	273589 990 40 79 39 77 39 0.973 8.6145935709638 134.01241402373 674.03752880549
189	274579 1049 40 79 39 77 39 4.0770079035056 13.889648214264 492.54510564155 6429.1395413038
190	275628 860 41 79 40 77 38 638.41399300427 826.6 29397.318519108 22926813.071063
191	276488 843 41 79 40 77 38 623.40470818306 826.6 29198.914359438 22647719.347445
192	277331 1090 41 79 40 77 38 -3.2576308673485 2.1031809573853 9.7272110565519 41.291975423773
193	278421 982 41 79 40 77 38 0.973 9.0677761402043 111.03223537684 482.12961374438
194	279403 1019 41 79 40 77 38 3.838464520714 13.886040555977 401.85061713311 4738.0827514516
195	280422 639 42 79 41 77 37 223.4 226.6 8321.9729514499 1871855.0180647
196	281061 998 42 79 41 77 37 37.041979229336 219.31352427503 4656.7924537913 734042.57478526
197	282059 1049 42 79 41 77 37 -3.3623584404346 2.498514138686 4.9798550833607 102.64181669835
198	283108 912 42 79 41 77 37 0.973 8.630988126729 116.69672369726 555.94221945145
199	284020 996 42 79 41 77 37 3.6229041975259 13.872401122411 406.60457157111 4884.0827429296
200	285016 1021 43 79 42 77 36 -4.4083284159146 2.4434925872553 5.5161250360081 98.959061105349
201	286037 900 43 79 42 77 36 0.973 9.0664394384363 116.0785850491 560.35353936713
202	286937 967 43 79 42 77 36 3.5235622448404 13.881242986552 371.24165192938 4357.4061299536
203	287904 595 44 79 43 77 35 223.4 223.4 7819 1746764.6
204	288499 940 44 79 43 77 35 37.450921980497 409.17981262603 7136.413128853 1927284.8334075
205	289439 802 44 79 43 77 35 438.36057345309 623.4 19812.84636896 11385733.561445
206	290241 754 44 79 43 77 35 226.6 406.26355870704 9251.6825895034 2560099.4551827
207	290995 989 44 79 43 77 35 -3.3176967911314 2.1114181507099 1.7683794588081 95.983698235652
208	291984 854 44 79 43 77 35 0.973 7.9213607805017 106.86482618421 506.37522329981
209	292838 915 45 79 44 77 34 238.38505653488 419.31129498844 11319.206501947 3893667.5158937
210	293753 588 45 79 44 77 34 823.4 826.6 28057.822589977 23154241.784936
211	294341 914 45 79 44 77 34 2.8197965518546 13.872067243548 379.46144446823 4601.8361069111
212	295255 914 45 79 44 77 34 3.7348991208054 13.88431689189 371.19412856536 4455.3814559758
213	296169 768 46 79 45 77 33 34.339340316189 226.6 5361.8902990647 1047439.8201083
214	296937 700 46 79 45 77 33 669.42501520751 826.6 26289.782665409 21021001.448276
215	297637 932 46 79 45 77 33 -3.2588155625859 2.1262582246563 2.5763196839815 72.905987991723
216	298569 811 46 79 45 77 33 0.973 8.2763054945556 99.706854207346 460.16741387696
217	299380 931 46 79 45 77 33 -3.2343499012184 2.3970139250811 2.5737529776114 86.418417487448
218	300311 817 46 79 45 77 33 0.973 8.2627287919762 102.78920830884 489.53571278669
219	301128 887 46 79 45 77 33 3.5871321729617 13.889845001712 360.98510292191 4396.6637278856
220	302015 665 47 79 46 77 32 26.6 191.51350622277 1943.3238365161 204307.5102886
221	302680 730 47 79 46 77 32 226.6 411.6651257503 9222.3641646606 2819496.6763923
222	303410 911 47 79 46 77 32 -4.3636599586756 2.1087441282952 8.889550748521 68.108975558439
223	304321 802 47 79 46 77 32 0.973 8.175982783948 101.72104847206 477.10490822621
224	305123 862 47 79 46 77 32 4.1620745457417 13.889889416588 365.04585703402 4517.8526463749
225	305985 527 48 79 47 77 31 626.6 626.6 19424.6 12171454.36
226	306512 830 48 79 47 77 31 445.72429723548 811.65398116605 20107.963407491 13469020.897059
227	307342 873 48 79 47 77 31 -3.3483763407012 2.1213100420171 9.1879600323924 62.233639047174
228	308215 785 48 79 47 77 31 0.973 8.0158341451363 99.805728953164 470.18664051381
229	309000 832 48 79 47 77 31 3.910360803577 13.871775779088 360.15207472926 4464.6493483779
230	309832 784 49 79 48 77 30 438.33206149571 619.29244216272 16618.265175608 9346370.0361484
231	310616 530 49 79 48 77 30 423.4 426.6 12786.984585635 5450261.0873007
232	311146 854 49 79 48 77 30 -4.4077757365536 2.1661120787007 4.747472387829 74.284829838901
233	312000 765 49 79 48 77 30 0.973 9.207871577672 96.017928994843 469.15092536939
234	312765 808 49 79 48 77 30 4.0801163163845 13.888866231341 385.3379110039 5134.1119772155
235	313573 782 50 79 49 77 29 517.00977484473 811.61748823102 19650.081009354 13557269.99769
236	314355 493 50 79 49 77 29 623.4 623.4 18078.6 11270199.24
237	314848 845 50 79 49 77 29 -0.19188618510207 2.0939566335897 9.7575858520863 19.124217337896
238	315693 779 50 79 49 77 29 1.3738319138486 8.6431905953922 80.37277524558 315.14957865736
239	316472 751 50 79 49 77 29 0 13.884368328969 210.35518739984 2308.228431849
240	317223 476 51 79 50 77 28 426.6 426.6 11944.8 5095651.68
241	317699 700 51 79 50 77 28 32.301 211.6477841217 2763.6967729053 405799.89580133
242	318399 763 51 79 50 77 28 -3.1547921811105 2.2069170381004 6.1680439247455 70.211554848114
243	319162 655 51 79 50 77 28 0.973 7.7093801782926 78.368277742001 345.55364840757
244	319817 754 51 79 50 77 28 4.1148131503758 13.881705468872 313.73622784365 3837.66406061
245	320571 557 52 79 51 77 27 523.69700241208 623.4 16403.925299631 9988887.0825021
246	321128 647 52 79 51 77 27 238.40703738618 423.4 9488.9288746855 3472855.0122495
247	321775 767 52 79 51 77 27 -3.3869776394521 2.179720267232 9.6851463176834 64.999804989647
248	322542 687 52 79 51 77 27 0.973 7.9464694161723 93.451404927594 473.06152062614
249	323229 636 52 79 51 77 27 0 13.876137752638 179.45997028171 2091.5146286754
250	323865 635 53 79 52 77 26 26.6 211.63574739063 2668.9934602275 403853.82486258
251	324500 512 53 79 52 77 26 362.15443701266 423.4 10822.812075672 4511700.4138512
252	325012 646 53 79 52 77 26 -3.2622688599108 2.084142423973 -3.5054423700072 52.802887587862
253	325658 581 53 79 52 77 26 0.973 7.8234379043507 59.254278730591 244.52061481797
254	326239 700 53 79 52 77 26 4.4241471115148 13.880623876164 301.5253449336 3733.9160011368
255	326939 713 54 79 53 77 25 -4.0552919784142 2.0275247751735 9.3981308823267 58.743759504124
256	327652 654 54 79 53 77 25 0.973 8.5094990740321 87.838906170411 449.22327042292
257	328306 672 54 79 53 77 25 4.0866672618151 13.882330129622 263.49293149143 3092.1156917016
258	328978 679 55 79 54 77 24 -3.3516632183908 2.1979348713998 9.7309378176905 65.006864794357
259	329657 604 55 79 54 77 24 0.973 7.7228687931952 86.796936698875 460.83406987426
260	330261 621 56 79 55 77 23 560.97892482521 815.62514062996 16260.043268602 11655259.865485
261	330882 368 56 79 55 77 23 23.4 23.4 538.2 12593.88
262	331250 592 57 79 56 77 22 3.918993272891 13.888871091108 273.67501224471 3584.1714132919
263	331842 564 58 79 57 77 21 431.39039769077 611.64870309098 10948.378085183 5799390.0250453
264	332406 358 58 79 57 77 21 23.4 26.060265127183 494.10068272785 11632.230595793
265	332764 553 58 79 57 77 21 626.6 816.17937898343 15244.45483336 11166243.147299
266	333317 384 58 79 57 77 21 810.782712962 823.4 17273.171016024 14207906.563171
267	333701 357 58 79 57 77 21 226.6 226.6 4758.6 1078298.76
268	334058 565 58 79 57 77 21 392.42474131615 612.54700682809 10969.797491695 5842080.4429047
269	334623 566 58 79 57 77 21 231.34725634608 411.62383226361 6752.6946521169 2263605.8432989
270	335189 377 58 79 57 77 21 623.4 626.56283970208 13095.131335471 8165841.3158081
271	335566 608 58 79 57 77 21 -0.1096998130763 2.2612024467299 9.966536149068 19.472969096545
272	336174 565 58 79 57 77 21 1.6510350487676 8.5022725101131 64.487078806173 283.83341892548
273	336739 538 59 79 58 77 20 640.60678822438 811.64671936402 14541.300414575 10651631.784336
274	337277 340 59 79 58 77 20 423.4 423.4 8468 3585351.2
275	337617 527 59 79 58 77 20 3.5794771146448 13.882493439983 188.62086865157 2108.3562844469
276	338144 539 59 79 58 77 20 3.4738068019358 13.888811328367 213.33087778297 2494.2581466166
277	338683 539 59 79 58 77 20 2.9668372175657 13.889225196582 239.64591779461 3089.3833198733
278	339222 535 59 79 58 77 20 3.5544546436705 13.886921987447 189.90459965183 2139.533161877
279	339757 512 60 79 59 77 19 35.416396540747 211.64951258825 2493.4904231195 401708.26557907
280	340269 323 60 79 59 77 19 223.4 223.4 4244.6 948243.64
281	340592 539 60 79 59 77 19 -2.6994037262555 2.1276488822629 0.78229684424151 41.33875718879
282	341131 452 60 79 59 77 19 0.973 7.5571089750407 54.180733125006 254.34388885775
283	341583 536 60 79 59 77 19 -3.1575457660155 2.0921338307788 6.730676844505 43.848201956958
284	342119 472 60 79 59 77 19 0.973 8.8387422602482 63.33438825222 320.58810830963
285	342591 547 60 79 59 77 19 -0.083150218657684 2.0411042272812 10.827229269028 19.967379935597
286	343138 512 60 79 59 77 19 1.7407403887641 7.5746111636981 60.573453037638 262.40018205946
287	343650 538 60 79 59 77 19 -3.1729702035989 2.0593553953245 1.2268988132559 48.545407297885
288	344188 462 60 79 59 77 19 0.973 8.3286623966677 55.49638716743 251.51095938814
289	344650 512 60 79 59 77 19 0.43470000322326 13.874843037003 170.58954831289 1970.3028793511
290	345162 288 61 79 60 77 18 26.6 26.6 478.8 12736.08
291	345450 483 61 79 60 77 18 30.694334154382 211.63212926882 2425.8140471823 395406.38059974
292	345933 508 61 79 60 77 18 -3.100092784547 1.9443838426122 -3.8886581728747 48.691435647913
293	346441 415 61 79 60 77 18 0.973 8.0292780165648 50.357296305353 231.75567228524
294	346856 480 61 79 60 77 18 4.022637375055 13.870188451898 184.09478188423 2136.2522837106
295	347336 455 62 79 61 77 17 238.41651922291 404.00637703308 5224.2544670015 1659774.3316675
296	347791 289 62 79 61 77 17 226.6 226.6 3852.2 872908.52
297	348080 478 62 79 61 77 17 -3.1487978216546 2.2163584706071 2.4089444009159 50.738764942676
298	348558 417 62 79 61 77 17 0.973 8.2934451017398 54.904105708214 268.66318576526
299	348975 457 62 79 61 77 17 3.8442939649057 13.86090401602 186.07316198001 2264.4192707851
300	349432 256 63 79 62 77 16 26.6 26.6 425.6 11320.96
301	349688 431 63 79 62 77 16 253.72824747053 411.65020983358 5566.9671546354 1982182.1387647
302	350119 454 63 79 62 77 16 -4.4480855198712 2.1886119800177 -0.10042528594787 54.896346216854
303	350573 399 63 79 62 77 16 0.973 7.6456829474333 51.241798402206 245.86001927302
304	350972 430 63 79 62 77 16 3.9030494853777 13.876233642185 172.87398662238 2061.9140097187
305	351402 421 64 79 63 77 15 -3.0868550896031 1.9940051062196 1.1989376253757 43.641476852927
306	351823 375 64 79 63 77 15 0.973 8.2248527040195 48.78548772063 233.52695975652
307	352198 404 64 79 63 77 15 3.9985991020813 13.883811737525 169.80735677512 2078.5952116852
308	352602 377 65 79 64 77 14 438.16766282006 566.93980419738 6825.1729171709 3353814.7899732
309	352979 238 65 79 64 77 14 226.6 226.6 3172.4 718865.84
310	353217 397 65 79 64 77 14 -3.1064898248547 2.147466169931 4.0790637207463 35.542940960773
311	353614 356 65 79 64 77 14 0.973 7.8278910028837 47.960996235369 239.16082422559
312	353970 221 66 79 65 77 13 423.4 423.4 5504.2 2330478.28
313	354191 351 66 79 65 77 13 237.67285442868 352.66281665073 3651.9698071474 1045664.9134957
314	354542 221 66 79 65 77 13 626.6 626.6 8145.8 5104158.28
315	354763 351 66 79 65 77 13 694.57617187041 811.62064211448 9970.0133808661 7666574.262482
316	355114 349 66 79 65 77 13 3.6405144118006 13.885348908729 148.06988455022 1849.8353771557
317	355463 204 67 79 66 77 12 826.6 826.6 9919.2 8199210.72
318	355667 323 67 79 66 77 12 507.76880880644 611.63603061239 6871.2673898671 3949390.6108545
319	355990 337 67 79 66 77 12 -0.11490160645917 2.1252294706763 10.231559776887 20.56054645089
320	356327 321 67 79 66 77 12 1.6341869236575 9.0363700295835 46.582540469514 253.61397541147
321	356648 323 67 79 66 77 12 3.458893672526 13.887281855673 134.49807520344 1659.4517486931
322	356971 323 67 79 66 77 12 4.1361918091781 13.886380373721 136.11757655635 1683.7783678
323	357294 296 68 79 67 77 11 322.90400459355 411.65920937598 4171.5487852685 1591939.9854273
324	357590 187 68 79 67 77 11 823.4 823.4 9057.4 7457863.16
325	357777 312 68 79 67 77 11 -0.074725479173939 2.1880194240645 10.428388183147 20.295072418311
326	358089 293 68 79 67 77 11 1.7691591792962 8.086074154058 44.751381164527 235.87581008839
327	358382 310 68 79 67 77 11 -0.098499106368982 2.0752336883522 9.7298185679659 18.353024731345
328	358692 296 68 79 67 77 11 1.6899660504524 8.0659700825016 43.901276902758 234.20260539033
329	358988 296 68 79 67 77 11 4.1198577870724 13.860828493678 122.92681774874 1503.3855396945
330	359284 279 69 79 68 77 10 -0.018218920866493 2.0796966332011 9.7227517857387 18.660057095328
331	359563 268 69 79 68 77 10 1.962022052925 8.4943683413036 41.900262665771 231.07447128829
332	359831 269 69 79 68 77 10 3.9462843941439 13.879136212363 107.78757171288 1289.8260626396
333	360100 243 70 79 69 77 9 354.62526508886 412.33049550414 3534.1273994184 1391255.7107186
334	360343 153 70 79 69 77 9 423.4 423.4 3810.6 1613408.04
335	360496 242 70 79 69 77 9 34.356142364417 96.363794623439 506.61969113176 32537.09722045
336	360738 144 70 79 69 77 9 26.6 26.6 239.4 6368.04
337	360882 251 70 79 69 77 9 -0.0057234558160424 1.967372586485 9.9328518182195 18.664855231972
338	361133 241 70 79 69 77 9 2.0040513402423 8.3515223236701 40.086608667334 225.33819292827
339	361374 136 71 79 70 77 8 226.6 226.6 1812.8 410780.48
340	361510 216 71 79 70 77 8 162.65832677904 211.60187987847 1556.5240042606 305125.55291436
341	361726 216 71 79 70 77 8 3.1524214083265 13.852965223717 76.788705501106 853.18166917696
342	361942 214 71 79 70 77 8 4.1234339295881 13.802938710127 80.988700167778 919.35389601033
343	362156 191 72 79 71 77 7 -0.036388303486165 2.1482433749316 10.664155511904 20.430984892379
344	362347 189 72 79 71 77 7 1.8990003726044 8.1218681064888 36.534548534438 216.1367625019
345	362536 193 72 79 71 77 7 -0.011332677507307 2.0353159668343 9.6681721030321 18.358902663787
346	362729 188 72 79 71 77 7 1.9799753829035 8.264274686641 35.587786311589 215.65842837524
347	362917 188 72 79 71 77 7 4.0457073401639 13.882481283271 68.010161631663 748.5517970146
348	363105 102 73 79 72 77 6 226.6 226.6 1359.6 308085.36
349	363207 162 73 79 72 77 6 192.78239044564 212.55078558935 1235.9131346133 254890.58651049
350	363369 162 73 79 72 77 6 438.34176444225 462.00894298799 2679.3042390412 1196889.9585209
351	363531 102 73 79 72 77 6 426.6 426.6 2559.6 1091925.36
352	363633 164 73 79 72 77 6 0.066991446360481 2.0941144846054 9.8367739431068 19.173274372167
353	363797 161 73 79 72 77 6 2.2509803120767 7.8835694548072 34.122819093444 217.10335213949
354	363958 134 74 79 73 77 5 396.1083421705 411.63573882067 2031.1154874277 825260.51178736
355	364092 85 74 79 73 77 5 423.4 423.4 2117 896337.8
356	364177 135 74 79 73 77 5 2.8235817377111 10.693869488142 34.000285144264 269.84374507501
357	364312 135 74 79 73 77 5 3.7006459015749 11.799766773838 38.910748855924 343.41393328274
358	364447 64 75 79 74 77 4 23.4 23.4 93.6 2190.24
359	364511 105 75 79 74 77 4 638.3623461733 646.6985901085 2564.9716834479 1644816.3872885
360	364616 106 75 79 74 77 4 1.9050320066256 2.0503167924983 7.8702877504309 15.49657342237
361	364722 108 75 79 74 77 4 3.7641340673128 6.6485373980736 20.846530849879 113.40894839639
362	364830 107 75 79 74 77 4 1.955864221009 2.1340196952457 8.0991208722629 16.416635696743
363	364937 107 75 79 74 77 4 4.410574817971 7.5600734098447 23.544627993305 144.27159694832
364	365044 108 75 79 74 77 4 4.2128471364792 10.049790074205 28.297792123598 219.16766443186
365	365152 80 76 79 75 77 3 808.3770699125 811.63942701707 2431.6559239466 1970990.6061375
366	365232 51 76 79 75 77 3 223.4 223.4 670.2 149722.68
367	365283 81 76 79 75 77 3 1.8227638780395 2.0502461758093 5.8369429377257 11.383009908879
368	365364 81 76 79 75 77 3 4.0728291056347 6.6542625241545 16.056526248367 89.270020017771
369	365445 80 76 79 75 77 3 4.1478473250057 8.1430648464431 18.352247646051 120.2539302606
370	365525 34 78 79 76 77 2 426.6 426.6 853.2 363975.12
371	365559 54 78 79 76 77 2 811.59852467412 811.59852467412 1623.1970493482 1317384.3305064
372	365613 54 78 79 76 77 2 1.9134881495964 2.0817293718411 3.9952175214374 7.9950340762316
373	365667 53 78 79 76 77 2 4.2181596352832 5.638051989917 9.8562116252002 49.580500949739
374	365720 54 78 79 76 77 2 4.1154911852309 5.8577180311649 9.9732092163958 51.250128228347
375	365774 27 79 79 77 77 1 34.359365354983 34.359365354983 34.359365354983 1180.5659875972
376	365801 17 79 79 77 77 1 826.6 826.6 826.6 683267.56
377	365818 27 79 79 77 77 1 1.7422268459341 1.7422268459341 1.7422268459341 3.0353543826933
378	365845 27 79 79 77 77 1 3.8706631564856 3.8706631564856 3.8706631564856 14.982033270975
379	365872 27 79 79 77 77 1 4.1164633512845 4.1164633512845 4.1164633512845 16.945270522468
vector 380 TestScenario.exploited[77].veinsmobility posx ETV
vector 381 TestScenario.exploited[77].veinsmobility posy ETV
vector 382 TestScenario.uninfected[75].veinsmobility acceleration ETV
vector 383 TestScenario.uninfected[75].veinsmobility co2emission ETV
vector 384 TestScenario.exploited[76].veinsmobility speed ETV
vector 385 TestScenario.uninfected[78].veinsmobility posx ETV
vector 386 TestScenario.uninfected[78].veinsmobility posy ETV
vector 387 TestScenario.exploited[76].veinsmobility acceleration ETV
vector 388 TestScenario.exploited[76].veinsmobility co2emission ETV
vector 389 TestScenario.exploited[77].veinsmobility speed ETV
0	366555 52 262 263 78 79 2 620.83714645593 620.83714645593 1241.6742929119 770877.5248391
1	366607 52 262 263 78 79 2 427.30228787356 427.30228787356 854.60457574712 365174.49044396
2	366659 32 262 263 78 79 2 226.6 226.6 453.2 102695.12
3	366691 50 262 263 78 79 2 324.84927746661 338.686828325 663.53610579161 220235.82075143
4	366741 24 262 263 78 79 2 0 0 0 0
7	366765 24 262 263 78 79 2 0 0 0 0
8	366789 32 262 263 78 79 2 0.973 0.973 1.946 1.893458
9	366821 52 262 263 78 79 2 13.813741136359 13.857797022569 27.671538158928 382.85798250105
12	366873 57 262 263 78 79 2 0.02310648036655 0.044055886210408 0.067162366576959 0.0024748305447142
13	366930 54 262 263 78 79 2 2.0968032231999 2.1714763998085 4.2682796230084 9.1118935117468
15	366984 34 262 263 78 79 2 626.6 626.6 1253.2 785255.12
16	367018 53 262 263 78 79 2 233.02489735828 236.5058646671 469.53076202538 110235.62681077
24	367071 53 262 263 78 79 2 1.2537969081352 2.633052723674 3.8868496318092 8.5049733324965
25	367124 54 262 263 78 79 2 258.01088347003 271.11737726711 529.12826073714 140074.24824518
26	367178 34 262 263 78 79 2 223.4 223.4 446.8 99815.12
27	367212 56 262 263 78 79 2 -2.0781174650438 -1.3792558155389 -3.4573732805826 6.2209188032178
28	367268 34 262 263 78 79 2 0.973 0.973 1.946 1.893458
34	367302 54 262 263 78 79 2 8.6320917517775 11.789174257595 20.421266009373 213.49763768705
37	367356 56 262 263 78 79 2 -3.1570825058179 -2.0499890235399 -5.2070715293578 14.169624945176
38	367412 34 262 263 78 79 2 0.973 0.973 1.946 1.893458
45	367446 34 262 263 78 79 2 226.6 226.6 453.2 102695.12
46	367480 53 262 263 78 79 2 465.9038374391 479.74110096726 945.64493840636 447217.90969776
54	367533 54 262 263 78 79 2 13.860768966572 13.882428369932 27.743197336504 384.84273379098
57	367587 58 262 263 78 79 2 0.021659403359518 0.051715450219344 0.073374853578862 0.0031436175452798
58	367645 54 262 263 78 79 2 2.0993082387303 2.1973958791668 4.2967041178972 9.2356437309804
65	367699 38 262 263 78 79 2 217.699 217.699 435.398 94785.709202
66	367737 34 262 263 78 79 2 426.6 426.6 853.2 363975.12
70	367771 32 262 263 78 79 2 23.4 23.4 46.8 1095.12
71	367803 54 262 263 78 79 2 460.02177076107 473.67578682362 933.69755758469 435988.78059712
74	367857 26 262 263 78 79 2 0 0 0 0
77	367883 26 262 263 78 79 2 0 0 0 0
78	367909 34 262 263 78 79 2 0.973 0.973 1.946 1.893458
79	367943 54 262 263 78 79 2 13.769903955248 13.847047212536 27.616951167784 381.35097144295
80	367997 34 262 263 78 79 2 626.6 626.6 1253.2 785255.12
81	368031 54 262 263 78 79 2 278.44374854806 292.25929166872 570.70304021678 162946.4146722
82	368085 58 262 263 78 79 2 -0.077143257288261 0.96548407739029 0.88834082010203 0.93811058583923
83	368143 54 262 263 78 79 2 1.7594500565011 5.2452054017225 7.0046554582235 30.60784420758
85	368197 34 262 263 78 79 2 223.4 223.4 446.8 99815.12
86	368231 54 262 263 78 79 2 524.98398069133 538.83434455332 1063.8183252447 565950.63085273
89	368285 54 262 263 78 79 2 11.975412760662 13.771461767734 25.746874528395 333.06367000837
90	368339 54 262 263 78 79 2 724.98092908614 738.83836878781 1463.819297874 1071479.4827316
91	368393 34 262 263 78 79 2 423.4 423.4 846.8 358535.12
92	368427 58 262 263 78 79 2 -1.7960490070719 -0.074829180312809 -1.8708781873847 3.2313914420301
93	368485 44 262 263 78 79 2 0.973 1.7672583540233 2.7402583540233 4.0699310898651
94	368529 54 262 263 78 79 2 13.882905293137 13.888391949865 27.771297243002 385.6224903313
95	368583 54 262 263 78 79 2 750.52873910597 764.35485278171 1514.8835918877 1147531.7291949
96	368637 32 262 263 78 79 2 23.4 23.4 46.8 1095.12
97	368669 61 262 263 78 79 2 -0.0054866567277347 0.0045147384842856 -0.00097191824344911 5.0486265629487e-005
98	368730 54 262 263 78 79 2 2.0085344587937 2.0425607545384 4.0510952133321 8.2062651081423
99	368784 54 262 263 78 79 2 13.838239385348 13.848291438723 27.686530824071 383.272045058
100	368838 56 262 263 78 79 2 664.32165412924 678.12910717588 1342.4507613051 901182.34614417
101	368894 34 262 263 78 79 2 26.6 26.6 53.2 1415.12
102	368928 61 262 263 78 79 2 -0.010052053374238 0.041549521819688 0.031497468445449 0.0018274065404832
103	368989 56 262 263 78 79 2 1.9888350521736 2.1620465399144 4.150881592088 8.6299101055102
104	369045 55 262 263 78 79 2 13.81183361558 13.869205183343 27.681038798923 383.12160024212
105	369100 36 262 263 78 79 2 626.6 626.6 1253.2 785255.12
106	369136 55 262 263 78 79 2 544.9777451555 558.78438759164 1103.7621327471 609240.73453093
107	369191 60 262 263 78 79 2 -0.057371567762457 0.10168341992889 0.044311852166429 0.013631014675956
108	369251 56 262 263 78 79 2 1.8287163125317 2.3653742975281 4.1940906100598 8.9391989191259
109	369307 56 262 263 78 79 2 13.844261733841 13.869998991967 27.714260725807 384.04045499224
112	369363 61 262 263 78 79 2 -0.001621896012221 0.025737258126028 0.024115362113807 0.00066503700252028
113	369424 56 262 263 78 79 2 2.0175576733144 2.1116114247025 4.129169098017 8.5294417740843
114	369480 56 262 263 78 79 2 13.763251775599 13.799303654563 27.562555430161 379.84788078935
117	369536 61 262 263 78 79 2 -0.040208242372609 0.036051878964063 -0.004156363408546 0.0029164407315339
118	369597 56 262 263 78 79 2 1.8814148041836 2.1383152952782 4.0197300994619 8.1121139674222
120	369653 56 262 263 78 79 2 469.93124493038 483.77836312394 953.70960805431 454876.87958869
121	369709 34 262 263 78 79 2 26.6 26.6 53.2 1415.12
125	369743 56 262 263 78 79 2 393.01762492649 402.75748802843 795.77511295493 316676.44766584
126	369799 36 262 263 78 79 2 426.6 426.6 853.2 363975.12
129	369835 56 262 263 78 79 2 13.822578194004 13.854589268696 27.6771674627 383.01331173361
130	369891 36 262 263 78 79 2 423.4 423.4 846.8 358535.12
131	369927 56 262 263 78 79 2 411.49381573788 417.25190980827 828.74572554615 343426.31662917
132	369983 61 262 263 78 79 2 -0.032011074691546 0.068917825031095 0.036906750339549 0.0057743755099244
133	370044 56 262 263 78 79 2 1.9141364848896 2.2541298395921 4.1682663244817 8.745019816525
134	370100 56 262 263 78 79 2 5.5427134151364 8.2530042514982 13.795717666635 98.83375117758
135	370156 36 262 263 78 79 2 426.6 426.6 853.2 363975.12
136	370192 56 262 263 78 79 2 243.75695508411 254.38378705176 498.14074213588 124128.56426668
137	370248 58 262 263 78 79 2 -3.2034756609348 -2.7102908363618 -5.9137664972966 17.607932727868
138	370306 36 262 263 78 79 2 0.973 0.973 1.946 1.893458
139	370342 56 262 263 78 79 2 2.5501353261306 4.6346211764436 7.1847565025741 27.982903630718
140	370398 36 262 263 78 79 2 423.4 423.4 846.8 358535.12
141	370434 56 262 263 78 79 2 544.39778250509 558.23940279183 1102.6371852969 608000.17642584
142	370490 57 262 263 78 79 2 -2.6105903577613 -2.084485850313 -4.6950762080743 11.160263276191
143	370547 36 262 263 78 79 2 0.973 0.973 1.946 1.893458
144	370583 56 262 263 78 79 2 6.3019273994009 9.1243849155266 15.426312314928 122.96868903401
145	370639 56 262 263 78 79 2 307.50428159778 321.32980206824 628.83408366602 197811.72489818
146	370695 36 262 263 78 79 2 223.4 223.4 446.8 99815.12
147	370731 58 262 263 78 79 2 -3.2820840741711 -2.8224575161257 -6.1045415902968 18.738342300262
148	370789 36 262 263 78 79 2 0.973 0.973 1.946 1.893458
149	370825 56 262 263 78 79 2 13.766727912566 13.828788609677 27.595516522243 380.75819182975
150	370881 36 262 263 78 79 2 626.6 626.6 1253.2 785255.12
151	370917 56 262 263 78 79 2 333.30994270635 347.13533867067 680.44528137702 231598.46126091
152	370973 61 262 263 78 79 2 -0.072636031166185 0.062060697111301 -0.010575334054884 0.0091275231495157
153	371034 56 262 263 78 79 2 1.7741430267565 2.2282337317177 4.0023767584742 8.1126090425531
154	371090 55 262 263 78 79 2 13.776980030139 13.77839668764 27.555376717779 379.64939403281
155	371145 36 262 263 78 79 2 426.6 426.6 853.2 363975.12
156	371181 56 262 263 78 79 2 470.09038704988 483.92724996586 954.01763701575 455170.55525623
157	371237 63 262 263 78 79 2 -0.019660378985572 -0.0014166575018315 -0.021077036487403 0.00038853742033381
158	371300 56 262 263 78 79 2 1.9510256819356 2.0114632842379 3.9624889661735 7.8524857554095
159	371356 56 262 263 78 79 2 13.784531459324 13.879269607726 27.66380106705 382.64743239704
160	371412 40 262 263 78 79 2 632.301 632.301 1264.602 799609.109202
161	371452 36 262 263 78 79 2 423.4 423.4 846.8 358535.12
162	371488 60 262 263 78 79 2 0.019783822598402 0.094738148401957 0.11452197100036 0.0093667163992363
163	371548 56 262 263 78 79 2 2.0826519478857 2.3434120844024 4.4260640322881 9.8290193333554
164	371604 56 262 263 78 79 2 13.848614999685 13.852244462573 27.700859462258 383.66881406038
165	371660 36 262 263 78 79 2 423.4 423.4 846.8 358535.12
166	371696 56 262 263 78 79 2 35.068957671157 42.951232307489 78.020189978646 3074.6401488733
167	371752 62 262 263 78 79 2 -0.0036294628889308 0.071788458430674 0.068158995541744 0.0051667557647148
168	371814 56 262 263 78 79 2 2.0112969914094 2.2634363634115 4.274733354821 9.1684597588662
169	371870 42 262 263 78 79 2 0 1.5119107806464 1.5119107806464 2.2858742086348
170	371912 56 262 263 78 79 2 466.06568541844 479.40580167431 945.47148709275 447047.14580355
171	371968 36 262 263 78 79 2 626.6 626.6 1253.2 785255.12
172	372004 42 262 263 78 79 2 0 1.5119107806464 1.5119107806464 2.2858742086348
173	372046 46 262 263 78 79 2 0.973 1.7341495252461 2.7071495252461 3.9540035759111
174	372092 56 262 263 78 79 2 8.8061375857661 10.647382984704 19.45352057047 190.91482360241
175	372148 36 262 263 78 79 2 626.6 626.6 1253.2 785255.12
176	372184 56 262 263 78 79 2 742.79200398691 756.62129840782 1499.4133023947 1124215.7503912
177	372240 56 262 263 78 79 2 1.8412453989382 2.0762452373444 3.9174906362826 7.7009789047064
178	372296 56 262 263 78 79 2 6.0042655051647 6.4598077752664 12.464073280431 77.780320749902
179	372352 56 262 263 78 79 2 13.791237656912 13.833885664637 27.625123321549 381.57462869168
180	372408 36 262 263 78 79 2 623.4 623.4 1246.8 777255.12
181	372444 55 262 263 78 79 2 526.2961476878 540.12055573682 1066.4167034246 568717.84980047
182	372499 57 262 263 78 79 2 0.042648007725365 1.365439691525 1.4080876992503 1.8662444037547
183	372556 56 262 263 78 79 2 2.1641048283846 6.5559013813554 8.72000620974 47.663192630295
184	372612 54 262 263 78 79 2 13.85427235201 13.85864001706 27.71291236907 384.00276552613
185	372666 36 262 263 78 79 2 426.6 426.6 853.2 363975.12
186	372702 56 262 263 78 79 2 403.37041208932 413.28448291788 816.6548950072 333511.7531698
187	372758 61 262 263 78 79 2 0.0043676650500863 0.030870856924448 0.035238521974534 0.00097208630523949
[...]
1485	4194183 1197 47119 54261 299 343 45 0.973 8.3956487434818 107.46539107185 449.96989903514
1486	4195380 1440 47119 54261 299 343 45 0.58102011170664 11.304184131428 204.05649464537 1258.8707516553
1487	4196820 1438 47119 54261 299 343 45 3.9916043845465 13.883913292694 488.44988689876 5820.380480836
1488	4198258 977 47120 54261 300 343 44 223.4 226.6 9892.0977073602 2224054.0578588
1489	4199235 1370 47120 54261 300 343 44 230.6488536801 411.63039576283 14767.643586243 5135075.5238514
1490	4200605 1459 47120 54261 300 343 44 -2.8696561621914 2.1052749249968 5.5821945695501 65.441648342931
1491	4202064 1216 47120 54261 300 343 44 0.973 7.2067228926417 88.631770281752 286.80576607839
1492	4203280 1455 47120 54261 300 343 44 -3.0577171027833 2.4155571256531 9.8603617670981 99.030291735082
1493	4204735 1303 47120 54261 300 343 44 0.973 8.4930251641355 142.50178479794 697.55153457131
1494	4206038 1403 47120 54261 300 343 44 4.0107550741575 13.87938147547 564.25488867835 7475.2779949885
1495	4207441 1370 47121 54261 301 343 43 464.23728419719 811.64930596508 26299.367682259 16726676.692062
1496	4208811 946 47121 54261 301 343 43 223.4 223.4 9606.2 2146025.08
1497	4209757 1462 47121 54261 301 343 43 -2.4268985513631 2.0947287308378 3.0795120041243 35.02909366248
1498	4211219 1335 47121 54261 301 343 43 0.973 8.7659960556867 105.68091115648 366.53186391364
1499	4212554 1391 47121 54261 301 343 43 4.5564589370227e-014 13.886648895442 352.75867623809 4106.1341129608
1502	4213945 1413 47122 54261 302 343 42 -3.2916190748877 2.0475068402616 -3.9909080023514 97.502432105117
1503	4215358 1165 47122 54261 302 343 42 0.973 8.2070167761879 110.36093141625 499.68881316956
1504	4216523 1351 47122 54261 302 343 42 4.5745929538166e-014 13.88999090441 349.64389278416 4074.3445660605
1505	4217874 1229 47123 54261 303 343 41 226.6 611.63138332759 16182.955607174 7183260.5288143
1506	4219103 991 47123 54261 303 343 41 732.38625512252 823.4 33395.441119869 27220979.156503
1507	4220094 1370 47123 54261 303 343 41 -3.063843901514 2.3177921358123 -2.0012378575114 98.337897703452
1508	4221464 1179 47123 54261 303 343 41 0.973 7.8403993846899 109.51001421815 487.84664806591
1512	4222643 1274 47124 54261 304 343 40 3.9224058427214 13.88617549313 492.66563213937 6367.0785552473
1515	4223917 1131 47125 54261 305 343 39 38.356309957805 226.6 6682.2999103935 1323948.9036732
1516	4225048 988 47125 54261 305 343 39 505.52899576084 626.6 23828.492071008 14600085.544884
1517	4226036 1317 47125 54261 305 343 39 -4.400416571759 2.0801271990221 9.9544688400049 57.419142452699
1518	4227353 1211 47125 54261 305 343 39 0.973 8.2131167556537 116.05310947835 503.27227693449
1520	4228564 1171 47435 54261 306 343 38 0 13.882559552433 324.32908626693 3805.6584266612
1521	4229735 788 47436 54261 307 343 37 23.4 26.6 929.15303465139 23425.720007616
1522	4230523 1178 47436 54261 307 343 37 231.22955197708 415.05886352614 11985.483911563 4031167.1984911
1523	4231701 1019 47436 54261 307 343 37 221.41577641403 411.59166037978 10334.649521017 3064116.6263141
1524	4232720 1012 47436 54261 307 343 37 623.91653948772 823.4 28412.875782224 22010770.446921
1527	4233732 1200 47436 54261 307 343 37 -2.5588488916167 2.2197312048776 9.6806139712098 70.343284077276
1528	4234932 1060 47436 54261 307 343 37 0.973 8.2688417556726 105.84045829006 495.63321767119
1529	4235992 1136 49172 54261 308 343 36 3.391321872076 13.884512991952 371.65916784 4381.2715367081
1530	4237128 1148 49172 54261 308 343 36 4.069502514884 13.889781334279 396.01905350358 4755.283668146
1531	4238276 1113 49173 54261 309 343 35 638.3634417467 818.37173380182 25634.277610325 18905724.54178
1532	4239389 790 49173 54261 309 343 35 423.4 426.6 14882.837032043 6328624.3522221
1533	4240179 1168 49173 54261 309 343 35 -3.2180960969014 2.0822090588463 -0.1432382612223 92.354499885109
1534	4241347 1036 49173 54261 309 343 35 0.973 7.9880432247206 104.3673074608 474.2830639044
1535	4242383 1172 49173 54261 309 343 35 -4.2610670910896 2.3893140509282 4.7211443432335 94.077916376887
1536	4243555 1053 49173 54261 309 343 35 0.973 8.3885433560537 110.40042789304 513.66246301396
1537	4244608 948 51511 54261 310 343 34 626.6 811.62091132796 23274.976042009 16097651.210412
1538	4245556 898 51511 54261 310 343 34 250.98536498159 423.4 13215.321945053 5234846.6724741
1539	4246454 1086 51511 54261 310 343 34 3.6136702581611 13.887746499944 358.27749048537 4249.9351897599
1540	4247540 1056 51512 54261 311 343 33 232.55543040938 611.60793138939 14345.716738187 6748235.932698
1541	4248596 693 51512 54261 311 343 33 23.4 23.4 772.2 18069.48
1542	4249289 1100 51512 54261 311 343 33 -3.2364742478348 2.0398682333808 3.4923821416059 82.275907952165
1543	4250389 985 51512 54261 311 343 33 0.973 8.0049732362638 101.66115207637 466.36230157135
1544	4251374 1050 51512 54261 311 343 33 4.3005457916527 13.876477503218 370.98822143566 4536.8217711435
1545	4252424 704 53232 54261 312 343 32 826.6 826.6 26451.2 21864561.92
1546	4253128 1014 53232 54261 312 343 32 237.56134345764 612.328533514 14298.391760847 6853278.2621516
1547	4254142 704 53232 54261 312 343 32 223.4 223.4 7148.8 1597041.92
1548	4254846 1022 53232 54261 312 343 32 437.55307828954 799.80695128121 19144.662393285 11887087.649795
1549	4255868 1073 53232 54261 312 343 32 -3.5704282425355 2.0373142770957 5.9277220906681 76.526585610852
1550	4256941 969 53232 54261 312 343 32 0.973 7.6620925958063 101.351868778 482.92867687526
1551	4257910 1022 53232 54261 312 343 32 4.2737077646423 13.889143584624 384.90399514357 4955.9465981831
1552	4258932 888 53233 54261 313 343 31 223.4 411.64940400468 8979.2789066558 2762012.4368407
1553	4259820 792 53233 54261 313 343 31 23.4 156.54367463499 1450.0633486684 117248.26089977
1554	4260612 1050 53233 54261 313 343 31 -3.319491540064 2.1064663482015 0.44275560480038 45.731772869039
1555	4261662 950 53233 54261 313 343 31 0.973 7.9921274784661 79.764975839717 304.78424595778
1556	4262612 989 53233 54261 313 343 31 3.2104350680102 13.887845269975 394.10288767272 5237.5229749624
1557	4263601 988 53233 54261 313 343 31 3.0879592313987 13.882784520311 371.93473117767 4736.0203858019
1558	4264589 761 53648 54261 314 343 30 23.4 145.62634453369 1320.4846267571 97430.45863217
1559	4265350 867 53648 54261 314 343 30 438.39348919417 626.6 16778.460703533 9539307.1685681
1560	4266217 1022 53648 54261 314 343 30 -0.086307833010796 2.0628695869865 10.653785321539 19.584865184231
1561	4267239 958 53648 54261 314 343 30 1.7298178104724 7.9520839545189 82.9807867461 305.70650329142
1562	4268197 1006 53648 54261 314 343 30 -3.3375364889134 2.1715202449774 3.3056446441085 58.203212663654
1563	4269203 907 53648 54261 314 343 30 0.973 8.8341720948115 89.800258856827 422.06151254884
1564	4270110 957 53648 54261 314 343 30 3.8556801341761 13.874949411924 336.4962102234 4117.6848225379
1565	4271067 965 53649 54261 315 343 29 -3.2085654881537 2.0395712982258 9.9951380824177 62.195517166945
1566	4272032 885 53649 54261 315 343 29 0.973 7.9917443420492 97.438715031271 462.19373233337
1567	4272917 927 53649 54261 315 343 29 3.3422720856611 13.872708760113 325.34483314791 3986.5589579402
1568	4273844 696 53974 54261 316 343 28 23.4 130.78051878038 1145.3457095196 74490.032283934
1569	4274540 805 53974 54261 316 343 28 638.35459723432 826.6 21142.374733863 16112459.556705
1570	4275345 932 53974 54261 316 343 28 -3.2234738275715 2.593444764344 9.8176730670989 67.895045694239
1571	4276277 854 53974 54261 316 343 28 0.973 7.6608585307077 96.475348054018 473.82938533193
1572	4277131 594 53975 54261 317 343 27 623.4 623.4 16831.8 10492944.12
1573	4277725 799 53975 54261 317 343 27 237.66435685383 360.057 8646.7161536928 2829932.9884215
1574	4278524 594 53975 54261 317 343 27 423.4 423.4 11431.8 4840224.12
1575	4279118 859 53975 54261 317 343 27 38.347808553665 349.49743426065 4717.87868584 1097987.0834028
1576	4279977 860 53975 54261 317 343 27 4.2305067296085 13.882918125552 312.87485863146 3880.9494608394
1577	4280837 867 53976 54261 318 343 26 -4.4584581260523 2.0336766186357 9.5854413597317 58.933680443144
1578	4281704 797 53976 54261 318 343 26 0.973 8.2931003514 90.188104007695 453.55312132138
1579	4282501 877 53976 54261 318 343 26 4.5457574333596e-014 13.830076196021 121.33242474613 1249.0551537796
1580	4283378 825 53976 54261 318 343 26 4.0384925426457 13.878867440901 330.15285703802 4369.8021547043
1581	4284203 759 53978 54261 319 343 25 226.6 412.62473020591 7776.9991180696 2546081.5037745
1582	4284962 600 53978 54261 319 343 25 585.77339324432 623.4 15497.669682738 9609169.0573452
1583	4285562 550 53978 54261 319 343 25 826.6 826.6 20665 17081689
1584	4286112 797 53978 54261 319 343 25 328.41623031971 611.63689215911 12223.452400472 6188933.5586084
1585	4286909 863 53978 54261 319 343 25 -2.5516997167424 2.0434381497931 -3.3427139857837 46.627771693669
1586	4287772 611 53978 54261 319 343 25 0.973 8.4375769636447 55.071601959934 235.86197247299
1587	4288383 850 53978 54261 319 343 25 -0.10098203074886 2.1380161145772 9.7371340534828 19.429655939708
1588	4289233 799 53978 54261 319 343 25 1.6802051412054 8.1464854236688 72.163750339366 298.26612269143
1589	4290032 767 53980 54261 320 343 24 556.18446692116 815.65557516168 16859.621435071 12016532.789404
1590	4290799 504 53980 54261 320 343 24 23.4 23.4 561.6 13141.44
1591	4291303 767 53980 54261 320 343 24 2.7294506612285 13.886129433976 240.7142256759 2746.3356693304
1592	4292070 764 53980 54261 320 343 24 3.8923786882163 13.887483903756 302.52773108761 3991.0136304688
1593	4292834 754 53981 54261 321 343 23 -3.2705940457594 2.1565700981789 11.062101884747 63.925301651911
1594	4293588 692 53981 54261 321 343 23 0.973 8.3362191293484 85.005867914432 445.7954786907
1595	4294280 779 53981 54261 321 343 23 -0.053648291891442 2.146834815084 9.911789590524 19.659249846893
1596	4295059 735 53981 54261 321 343 23 1.8393782824984 8.0314568032233 68.400362853337 287.2308085133
1597	4295794 732 53981 54261 321 343 23 3.8682724214319 13.888688001286 278.4788338599 3545.4994147225
1598	4296526 730 53982 54261 322 343 22 -1.2630632246787 2.0861577539821 10.018408778939 24.55289354632
1599	4297256 674 53982 54261 322 343 22 0.973 8.2921020685691 71.497727769274 329.60808079225
1600	4297930 670 53983 54261 323 343 21 38.346972904907 202.5614962099 2620.2772259565 407390.37127184
1601	4298600 462 53983 54261 323 343 21 426.6 426.6 8958.6 3821738.76
1602	4299062 672 53983 54261 323 343 21 237.96228182382 425.02443095098 6863.8164884357 2337362.0205763
1603	4299734 482 53983 54261 323 343 21 423.35928174836 426.6 8955.2113809353 3818858.1143434
1604	4300216 670 53983 54261 323 343 21 38.391798697339 218.68429343914 2690.7000937809 436994.3791259
1605	4300886 482 53983 54261 323 343 21 223.41259871194 226.6 4754.8230697525 1076597.5622832
1606	4301368 640 53984 54261 324 343 20 438.37361842836 601.79121604794 10416.825413704 5499884.4593446
1607	4302008 440 53984 54261 324 343 20 626.6 626.6 12532 7852551.2
1608	4302448 642 53984 54261 324 343 20 2.54052744357e-011 13.841815252658 163.24277210666 1851.3212477375
1609	4303090 640 53984 54261 324 343 20 3.5285707496949 13.880935841643 198.7825686475 2248.624641994
1610	4303730 640 53984 54261 324 343 20 3.5354945456632 13.873665885818 190.13219304561 2145.6936048286
1611	4304370 607 53985 54261 325 343 19 635.02453908244 811.65532945359 13878.998184022 10213113.50346
1612	4304977 418 53985 54261 325 343 19 223.4 223.4 4244.6 948243.64
1613	4305395 631 53985 54261 325 343 19 -2.78723461184 2.0462922385917 -3.982893292379 47.736987588037
1614	4306026 516 53985 54261 325 343 19 0.973 8.8341563669897 50.683415297866 244.47371585851
1615	4306542 627 53985 54261 325 343 19 -3.1628645888659 2.4676897066738 4.8558639829322 55.781142408162
1616	4307169 566 53985 54261 325 343 19 0.973 8.066007006912 62.770324332645 293.97747797848
1617	4307735 633 53985 54261 325 343 19 -3.0571221055818 1.9731209105975 1.2335378369748 48.351304699786
1618	4308368 557 53985 54261 325 343 19 0.973 8.3453746929441 55.620943971114 255.13995310365
1619	4308925 609 53985 54261 325 343 19 0.43711524101556 13.884517084456 163.43753275598 1877.8430840323
1622	4309534 600 53986 54261 326 343 18 -3.3762499432666 2.0529736401024 -3.5088015738726 53.786481059976
1623	4310134 515 53986 54261 326 343 18 0.973 8.5227704004035 51.011276601325 239.99571884734
1624	4310649 576 53986 54261 326 343 18 4.1644172989714 13.834227433396 184.88316624621 2145.6662655547
1625	4311225 568 53987 54261 327 343 17 -3.2279228831991 2.3884767650999 2.6585530427858 51.48327240551
1626	4311793 504 53987 54261 327 343 17 0.973 8.0268871704106 54.936341568494 270.95474611026
1628	4312297 511 53989 54261 328 343 16 238.36732886923 396.73293705616 4831.7420835683 1504372.5140265
1629	4312808 352 53989 54261 328 343 16 826.6 826.6 13225.6 10932280.96
1632	4313160 330 53990 54261 329 343 15 826.6 826.6 12399 10249013.4
1633	4313490 478 53990 54261 329 343 15 466.11759014805 611.62623657359 8309.8551694832 4639470.7792643
1634	4313968 479 53990 54261 329 343 15 3.8912810263942 13.882719767741 171.34953039903 2109.8607852379
1635	4314447 308 53992 54261 330 343 14 226.6 226.6 3172.4 718865.84
1636	4314755 448 53992 54261 330 343 14 482.91230131091 611.63491683265 7870.0196742255 4450358.7584142
1637	4315203 469 53992 54261 330 343 14 -3.2015477517192 2.1427764684567 4.977556505905 33.13580861566
1638	4315672 428 53992 54261 330 343 14 0.973 8.7430624115016 48.045191784186 248.38300416288
1639	4316100 444 53992 54261 330 343 14 4.0087121823645 13.887590059054 164.69647946662 2083.7794592206
1640	4316544 414 53993 54261 331 343 13 438.33738198812 554.64287116102 6274.1576448472 3048123.4206284
1641	4316958 286 53993 54261 331 343 13 826.6 826.6 10745.8 8882478.28
1642	4317244 273 53993 54261 331 343 13 26.6 26.6 345.8 9198.28
1643	4317517 415 53993 54261 331 343 13 294.59882485179 411.65576848445 4772.572810328 1772569.9939329
1644	4317932 433 53993 54261 331 343 13 -0.12136299160076 2.0892887717369 9.7740203803772 19.385277201494
1645	4318365 413 53993 54261 331 343 13 1.6121408261287 8.3611273939091 47.990905014302 245.72840321057
1646	4318778 415 53993 54261 331 343 13 3.8757201063797 13.886350933597 146.73073926887 1805.800161381
1647	4319193 401 53994 54261 332 343 12 -0.99041275174145 1.9092306195386 8.9634724568805 18.629575820977
1648	4319594 372 53994 54261 332 343 12 0.973 7.973549037843 44.762924898319 222.83669413015
1649	4319966 382 53994 54261 332 343 12 3.9341839401102 13.882984946484 135.19602453375 1662.591512676
1650	4320348 382 53994 54261 332 343 12 3.8315181408861 13.853973477494 136.0768802433 1688.775058868
1651	4320730 350 53995 54261 333 343 11 238.3557511834 328.04694280716 2984.8960817758 820153.8098479
1652	4321080 231 53995 54261 333 343 11 26.6 26.6 292.6 7783.16
1653	4321311 365 53995 54261 333 343 11 -0.091661346144974 2.051590875024 9.857139660229 17.718461802569
1654	4321676 350 53995 54261 333 343 11 1.7129585240727 7.1386931738399 43.701274974474 218.32427161111
1655	4322026 368 53995 54261 333 343 11 -0.056474276382941 2.1422227908811 9.9736059946948 20.161282993742
1656	4322394 350 53995 54261 333 343 11 1.827454771669 8.1960946365391 44.234321224683 244.06478349478
1657	4322744 320 53996 54261 334 343 10 237.66121031514 309.16945513531 2624.9044846801 694897.33187542
1658	4323064 220 53996 54261 334 343 10 826.6 826.6 8266 6832675.6
1659	4323284 318 53996 54261 334 343 10 533.9943685951 611.60850346118 5835.8615124796 3412753.6461975
1660	4323602 210 53996 54261 334 343 10 23.4 23.4 234 5475.6
1661	4323812 320 53996 54261 334 343 10 4.0334947121002 13.876447684471 108.80529551353 1302.9291750621
1662	4324132 285 53997 54261 335 343 9 238.38207513422 301.08093552872 2344.7054322702 614969.99994723
1663	4324417 198 53997 54261 335 343 9 626.6 626.6 5639.4 3533648.04
1664	4324615 296 53997 54261 335 343 9 -0.10818716568872 2.1780343624554 9.7347658066826 17.953614990837
1665	4324911 288 53997 54261 335 343 9 1.6563066131779 7.6317290049602 39.602727433955 212.46491025866
1666	4325199 288 53997 54261 335 343 9 3.3072776218291 13.874100604649 90.745695308075 1047.2916544754
1667	4325487 287 53997 54261 335 343 9 4.1245013752942 13.880619890415 96.657764709265 1150.775630916
1668	4325774 176 53998 54261 336 343 8 426.6 426.6 3412.8 1455900.48
1669	4325950 255 53998 54261 336 343 8 163.13955091651 211.62048763713 1558.0728055129 305684.810331
1670	4326205 260 53998 54261 336 343 8 -0.05502546359785 2.1597239968041 10.511797519222 20.127406264552
1671	4326465 256 53998 54261 336 343 8 1.8371620259784 8.5626878803898 38.411377699138 223.17686037015
1672	4326721 262 53998 54261 336 343 8 -0.041704467774833 2.2598399655893 9.7144140473461 19.258449374526
1673	4326983 254 53998 54261 336 343 8 1.8833354503931 8.046754111408 38.025612373148 224.39776276074
1674	4327237 255 53998 54261 336 343 8 4.1447325312744 13.833231457523 81.717439439332 935.16408331341
1675	4327492 147 53999 54261 337 343 7 26.6 26.6 186.2 4952.92
1676	4327639 224 53999 54261 337 343 7 580.17406147246 612.18380992714 4208.9357418462 2531623.1841287
1677	4327863 229 53999 54261 337 343 7 -0.063548050937243 2.0600454805931 9.6884989262487 18.77656155496
1678	4328092 224 53999 54261 337 343 7 1.8037233650228 8.1216848744724 35.814064437478 219.87905487989
1679	4328316 224 53999 54261 337 343 7 3.9933547841194 13.869967954298 67.516701500188 741.01370443757
1680	4328540 195 54001 54261 338 343 6 -0.013250162384937 2.0839834499243 9.8633630077941 19.530574783684
1681	4328735 191 54001 54261 338 343 6 1.9799836737535 8.4340529255652 34.100664456833 221.68940861339
1682	4328926 192 54001 54261 338 343 6 3.3617813065895 13.240047736095 49.687361676322 481.24499979151
1683	4329118 159 54003 54261 339 343 5 196.5533007814 211.64994818113 1031.9730040513 213158.61359714
1684	4329277 110 54003 54261 339 343 5 623.4 623.4 3117 1943137.8
1685	4329387 159 54003 54261 339 343 5 1.8643926268816 2.081381683785 9.8782664295053 19.557728417764
1686	4329546 160 54003 54261 339 343 5 3.7235142463521 7.9612535994626 30.374836799085 196.87631720996
1687	4329706 127 54004 54261 340 343 4 203.37879053458 211.60063357217 834.97896564522 174342.69353714
1688	4329833 84 54004 54261 340 343 4 23.4 23.4 93.6 2190.24
1689	4329917 128 54004 54261 340 343 4 4.0092658548052 9.9018473088038 27.587590875896 209.37611011608
1690	4330045 66 54005 54261 341 343 3 823.4 823.4 2470.2 2033962.68
1691	4330111 96 54005 54261 341 343 3 34.375321611383 37.542369125844 106.29301234861 3772.7549513532
1692	4330207 96 54005 54261 341 343 3 1.8613414449594 2.1329377301806 5.8925814539986 11.617566877471
1693	4330303 96 54005 54261 341 343 3 4.1166852354051 6.7672761526741 15.897053044533 87.874211809958
1694	4330399 96 54005 54261 341 343 3 4.0171377345163 7.8947282695153 17.747199344392 112.51524522068
1695	4330495 64 54260 54261 342 343 2 1.8181956058438 2.0593949291552 3.877590534999 7.54694273534
1696	4330559 62 54260 54261 342 343 2 3.966808490137 5.454562533841 9.4213710239779 45.487822033004
1697	4330621 64 54260 54261 342 343 2 4.0199142114761 5.8240656264745 9.8439798379506 50.079450689109
1698	4330685 32 54261 54261 343 343 1 33.373578716793 33.373578716793 33.373578716793 1113.795756366
1699	4330717 21 54261 54261 343 343 1 26.6 26.6 26.6 707.56
1700	4330738 32 54261 54261 343 343 1 611.63135642966 611.63135642966 611.63135642966 374092.91616798
1701	4330770 22 54261 54261 343 343 1 623.4 623.4 623.4 388627.56
1702	4330792 32 54261 54261 343 343 1 1.8041514149983 1.8041514149983 1.8041514149983 3.2549623282405
1703	4330824 32 54261 54261 343 343 1 3.9415090410292 3.9415090410292 3.9415090410292 15.535493520515

