version 2
run Default-0-20200720-14:56:29-36748
attr configname Default
attr datetime 20200720-14:56:29
attr experiment Default
attr inifile omnetpp.ini
attr iterationvars ""
attr iterationvarsf ""
attr measurement ""
attr network sim1.src.TestScenario
attr processid 36748
attr repetition 0
attr replication #0
attr resultdir results
attr runnumber 0
attr seedset 0
param *.playgroundSizeX 1000m
param *.playgroundSizeY 1000m
param *.playgroundSizeZ 50m
param *.manager.moduleType "\"exploited=org.car2x.veins.nodes.Car *=org.car2x.veins.nodes.Car\""
param *.manager.moduleName "\"exploited=exploited *=uninfected\""
param *.manager.updateInterval 1s
param *.manager.host "\"localhost\""
param *.manager.port 9999
param *.manager.autoShutdown true
param *.manager.launchConfig "xmldoc(\"demo.launchd.xml\")"
param *.connectionManager.sendDirect true
param *.connectionManager.maxInterfDist 300m
param *.connectionManager.drawMaxIntfDist false
param *.**.nic.mac1609_4.useServiceChannel false
param *.**.nic.mac1609_4.txPower 20mW
param *.**.nic.mac1609_4.bitrate 6Mbps
param *.**.nic.phy80211p.sensitivity -89dBm
param *.**.nic.phy80211p.useThermalNoise true
param *.**.nic.phy80211p.thermalNoise -110dBm
param *.**.nic.phy80211p.decider "xmldoc(\"config.xml\")"
param *.**.nic.phy80211p.analogueModels "xmldoc(\"config.xml\")"
param *.**.nic.phy80211p.usePropagationDelay true
param *.**.nic.phy80211p.antenna "xmldoc(\"antenna.xml\", \"/root/Antenna[@id='monopole']\")"
param *.uninfected[*].applType "\"sim1.src.Uninfected\""
param *.uninfected[*].appl.dataPriority 2
param *.uninfected[*].appl.headerLength "80 bit"
param *.uninfected[*].appl.sendBeacons false
param *.uninfected[*].appl.dataOnSch false
param *.uninfected[*].appl.beaconInterval 1s
param *.uninfected[*].veinsmobilityType.debug true
param *.uninfected[*].veinsmobility.x 0
param *.uninfected[*].veinsmobility.y 0
param *.uninfected[*].veinsmobility.z 1.895
param *.uninfected[*0].veinsmobility.accidentCount 1
param *.uninfected[*0].veinsmobility.accidentStart 75s
param *.uninfected[*0].veinsmobility.accidentDuration 50s
param *.exploited[*].applType "\"sim1.src.Exploited\""
param *.exploited[*].appl.dataPriority 2
param *.exploited[*].appl.headerLength "80 bit"
param *.exploited[*].appl.sendBeacons false
param *.exploited[*].appl.dataOnSch false
param *.exploited[*].appl.beaconInterval 1s
param *.exploited[*].veinsmobilityType.debug true
param *.exploited[*].veinsmobility.x 0
param *.exploited[*].veinsmobility.y 0
param *.exploited[*].veinsmobility.z 1.895
param *.exploited[*0].veinsmobility.accidentCount 1
param *.exploited[*0].veinsmobility.accidentStart 75s
param *.exploited[*0].veinsmobility.accidentDuration 50s

vector 0 TestScenario.uninfected[0].veinsmobility posx ETV
vector 1 TestScenario.uninfected[0].veinsmobility posy ETV
vector 2 TestScenario.uninfected[1].veinsmobility posx ETV
vector 3 TestScenario.uninfected[1].veinsmobility posy ETV
vector 4 TestScenario.uninfected[0].veinsmobility speed ETV
vector 5 TestScenario.uninfected[2].veinsmobility posx ETV
vector 6 TestScenario.uninfected[2].veinsmobility posy ETV
vector 7 TestScenario.uninfected[0].veinsmobility acceleration ETV
vector 8 TestScenario.uninfected[0].veinsmobility co2emission ETV
vector 9 TestScenario.uninfected[1].veinsmobility speed ETV
vector 10 TestScenario.uninfected[3].veinsmobility posx ETV
vector 11 TestScenario.uninfected[3].veinsmobility posy ETV
vector 12 TestScenario.uninfected[1].veinsmobility acceleration ETV
vector 13 TestScenario.uninfected[1].veinsmobility co2emission ETV
vector 14 TestScenario.uninfected[2].veinsmobility speed ETV
vector 15 TestScenario.uninfected[4].veinsmobility posx ETV
vector 16 TestScenario.uninfected[4].veinsmobility posy ETV
vector 17 TestScenario.uninfected[2].veinsmobility acceleration ETV
vector 18 TestScenario.uninfected[2].veinsmobility co2emission ETV
vector 19 TestScenario.uninfected[3].veinsmobility speed ETV
vector 20 TestScenario.uninfected[5].veinsmobility posx ETV
vector 21 TestScenario.uninfected[5].veinsmobility posy ETV
vector 22 TestScenario.uninfected[3].veinsmobility acceleration ETV
vector 23 TestScenario.uninfected[3].veinsmobility co2emission ETV
vector 24 TestScenario.uninfected[4].veinsmobility speed ETV
vector 25 TestScenario.uninfected[6].veinsmobility posx ETV
vector 26 TestScenario.uninfected[6].veinsmobility posy ETV
vector 27 TestScenario.uninfected[4].veinsmobility acceleration ETV
vector 28 TestScenario.uninfected[4].veinsmobility co2emission ETV
vector 29 TestScenario.uninfected[5].veinsmobility speed ETV
vector 30 TestScenario.uninfected[7].veinsmobility posx ETV
vector 31 TestScenario.uninfected[7].veinsmobility posy ETV
vector 32 TestScenario.uninfected[5].veinsmobility acceleration ETV
vector 33 TestScenario.uninfected[5].veinsmobility co2emission ETV
vector 34 TestScenario.uninfected[6].veinsmobility speed ETV
vector 35 TestScenario.uninfected[8].veinsmobility posx ETV
vector 36 TestScenario.uninfected[8].veinsmobility posy ETV
vector 37 TestScenario.uninfected[6].veinsmobility acceleration ETV
vector 38 TestScenario.uninfected[6].veinsmobility co2emission ETV
vector 39 TestScenario.uninfected[7].veinsmobility speed ETV
vector 40 TestScenario.uninfected[9].veinsmobility posx ETV
vector 41 TestScenario.uninfected[9].veinsmobility posy ETV
vector 42 TestScenario.uninfected[7].veinsmobility acceleration ETV
vector 43 TestScenario.uninfected[7].veinsmobility co2emission ETV
vector 44 TestScenario.uninfected[8].veinsmobility speed ETV
vector 45 TestScenario.uninfected[10].veinsmobility posx ETV
vector 46 TestScenario.uninfected[10].veinsmobility posy ETV
vector 47 TestScenario.uninfected[8].veinsmobility acceleration ETV
vector 48 TestScenario.uninfected[8].veinsmobility co2emission ETV
vector 49 TestScenario.uninfected[9].veinsmobility speed ETV
vector 50 TestScenario.uninfected[11].veinsmobility posx ETV
vector 51 TestScenario.uninfected[11].veinsmobility posy ETV
vector 52 TestScenario.uninfected[9].veinsmobility acceleration ETV
vector 53 TestScenario.uninfected[9].veinsmobility co2emission ETV
vector 54 TestScenario.uninfected[10].veinsmobility speed ETV
vector 55 TestScenario.uninfected[12].veinsmobility posx ETV
vector 56 TestScenario.uninfected[12].veinsmobility posy ETV
vector 57 TestScenario.uninfected[10].veinsmobility acceleration ETV
vector 58 TestScenario.uninfected[10].veinsmobility co2emission ETV
vector 59 TestScenario.uninfected[11].veinsmobility speed ETV
vector 60 TestScenario.uninfected[13].veinsmobility posx ETV
vector 61 TestScenario.uninfected[13].veinsmobility posy ETV
vector 62 TestScenario.uninfected[11].veinsmobility acceleration ETV
vector 63 TestScenario.uninfected[11].veinsmobility co2emission ETV
vector 64 TestScenario.uninfected[12].veinsmobility speed ETV
vector 65 TestScenario.uninfected[14].veinsmobility posx ETV
vector 66 TestScenario.uninfected[14].veinsmobility posy ETV
vector 67 TestScenario.uninfected[12].veinsmobility acceleration ETV
vector 68 TestScenario.uninfected[12].veinsmobility co2emission ETV
vector 69 TestScenario.uninfected[13].veinsmobility speed ETV
vector 70 TestScenario.uninfected[15].veinsmobility posx ETV
vector 71 TestScenario.uninfected[15].veinsmobility posy ETV
vector 72 TestScenario.uninfected[13].veinsmobility acceleration ETV
vector 73 TestScenario.uninfected[13].veinsmobility co2emission ETV
vector 74 TestScenario.uninfected[14].veinsmobility speed ETV
8	31	3	4.0322527122872
8	71	4	5.2975898300737
8	129	5	6.2393095735349
8	223	6	8.1168280262473
8	318	7	8.4055474696849
8	434	8	2.3038658754484
8	572	9	1.9713149755574
8	737	10	1.8163442131359
8	918	11	2.0431495384622
8	1117	12	2.1380878866565
8	1357	13	1.8140458596149
8	1609	14	2.2730687791507
8	1875	15	2.0682301560311
8	2223	16	1.9544832606483
7	31	3	1.9318974897382
7	71	4	2.0363803824014
7	129	5	1.9676209085644
7	223	6	2.1980462150532
7	318	7	1.9237625535764
7	434	8	0.083470799195652
7	572	9	-0.015602680516896
7	737	10	-0.060467649514321
7	918	11	0.0075541240349413
7	1117	12	0.034957707063295
7	1357	13	-0.060687651869376
7	1609	14	0.074943820482586
7	1875	15	0.013140040771104
7	2223	16	-0.020331218841019
4	12	2	3.722822103166
4	31	3	5.6547195929041
4	71	4	7.6910999753055
4	129	5	9.65872088387
4	223	6	11.856767098923
4	318	7	13.7805296525
4	434	8	13.864000451695
4	572	9	13.848397771178
4	737	10	13.787930121664
4	918	11	13.795484245699
4	1117	12	13.830441952762
4	1357	13	13.769754300893
4	1609	14	13.844698121375
4	1875	15	13.857838162147
4	2223	16	13.837506943305
1	2	1	26.6
1	12	2	26.6
1	31	3	26.6
1	71	4	26.6
1	129	5	26.6
1	223	6	26.6
1	318	7	26.6
1	434	8	26.6
1	572	9	26.6
1	737	10	26.6
1	918	11	26.6
1	1117	12	26.6
1	1357	13	26.6
1	1609	14	26.6
1	1875	15	26.6
1	2223	16	26.6
0	2	1	238.33130028169
0	12	2	238.33130028169
0	31	3	241.29043300185
0	71	4	246.13581405062
0	129	5	252.95160311503
0	223	6	261.74815797592
0	318	7	272.64644069597
0	434	8	285.48956514724
0	572	9	299.30126151605
0	737	10	313.14492636243
0	918	11	326.97829308077
0	1117	12	340.769842025
0	1357	13	354.60005657968
0	1609	14	368.42574301749
0	1875	15	382.26350665311
0	2223	16	396.09961021668
vector 75 TestScenario.uninfected[16].veinsmobility posx ETV
vector 76 TestScenario.uninfected[16].veinsmobility posy ETV
vector 77 TestScenario.uninfected[14].veinsmobility acceleration ETV
vector 78 TestScenario.uninfected[14].veinsmobility co2emission ETV
vector 79 TestScenario.uninfected[15].veinsmobility speed ETV
vector 80 TestScenario.uninfected[17].veinsmobility posx ETV
vector 81 TestScenario.uninfected[17].veinsmobility posy ETV
vector 82 TestScenario.uninfected[15].veinsmobility acceleration ETV
vector 83 TestScenario.uninfected[15].veinsmobility co2emission ETV
vector 84 TestScenario.uninfected[16].veinsmobility speed ETV
18	129	5	4.0931528521982
18	223	6	5.7190741242088
18	318	7	6.1749091097848
18	434	8	7.0927377317887
18	572	9	8.0164398552752
18	737	10	2.8535438728518
18	918	11	2.0289928328033
18	1117	12	1.8810522803744
18	1357	13	2.2640623022785
18	1609	14	1.7179053222839
18	1875	15	2.3318076288463
18	2223	16	1.8661754768186
18	2600	17	1.8798970224183
18	2982	18	2.2886268299481
17	129	5	1.8934586951672
17	223	6	2.1563206688361
17	318	7	1.88209418691
17	434	8	1.8559557857434
17	572	9	1.8352935877116
17	737	10	0.24849788005181
17	918	11	0.0014822860877022
17	1117	12	-0.041685313740745
17	1357	13	0.070846990777644
17	1609	14	-0.090231728134675
17	1875	15	0.091062660592142
17	2223	16	-0.046825560478029
17	2600	17	-0.04157504157396
17	2982	18	0.078514577073511
14	71	4	3.9817542820289
14	129	5	5.8752129771961
14	223	6	8.0315336460323
14	318	7	9.9136278329422
14	434	8	11.769583618686
14	572	9	13.604877206397
14	737	10	13.853375086449
14	918	11	13.854857372537
14	1117	12	13.813172058796
14	1357	13	13.884019049574
14	1609	14	13.793787321439
14	1875	15	13.884849982031
14	2223	16	13.838024421553
14	2600	17	13.796449379979
14	2982	18	13.874963957053
6	31	3	826.6
6	71	4	826.6
6	129	5	826.6
6	223	6	826.6
6	318	7	826.6
6	434	8	826.6
6	572	9	826.6
6	737	10	826.6
6	918	11	826.6
6	1117	12	826.6
6	1357	13	826.6
6	1609	14	826.6
6	1875	15	826.6
6	2223	16	826.6
6	2600	17	826.6
6	2982	18	826.6
5	31	3	438.34775942317
5	71	4	438.34775942317
5	129	5	441.4088176292
5	223	6	446.45434897665
5	318	7	453.53617424597
5	434	8	462.57975371523
5	572	9	473.44364339012
5	737	10	486.20180991347
5	918	11	500.03542001702
5	1117	12	513.85840024455
5	1357	13	527.67166847357
5	1609	14	541.50101008848
5	1875	15	555.3072618635
5	2223	16	569.13437337156
5	2600	17	582.96147125182
5	2982	18	596.79834308495
vector 85 TestScenario.uninfected[18].veinsmobility posx ETV
vector 86 TestScenario.uninfected[18].veinsmobility posy ETV
vector 87 TestScenario.uninfected[16].veinsmobility acceleration ETV
vector 88 TestScenario.uninfected[16].veinsmobility co2emission ETV
vector 89 TestScenario.uninfected[17].veinsmobility speed ETV
vector 90 TestScenario.uninfected[19].veinsmobility posx ETV
vector 91 TestScenario.uninfected[19].veinsmobility posy ETV
vector 92 TestScenario.uninfected[17].veinsmobility acceleration ETV
vector 93 TestScenario.uninfected[17].veinsmobility co2emission ETV
vector 94 TestScenario.uninfected[18].veinsmobility speed ETV
vector 95 TestScenario.uninfected[20].veinsmobility posx ETV
vector 96 TestScenario.uninfected[20].veinsmobility posy ETV
vector 97 TestScenario.uninfected[18].veinsmobility acceleration ETV
vector 98 TestScenario.uninfected[18].veinsmobility co2emission ETV
vector 99 TestScenario.uninfected[19].veinsmobility speed ETV
vector 100 TestScenario.uninfected[21].veinsmobility posx ETV
vector 101 TestScenario.uninfected[21].veinsmobility posy ETV
vector 102 TestScenario.uninfected[19].veinsmobility acceleration ETV
vector 103 TestScenario.uninfected[19].veinsmobility co2emission ETV
vector 104 TestScenario.uninfected[20].veinsmobility speed ETV
vector 105 TestScenario.uninfected[22].veinsmobility posx ETV
vector 106 TestScenario.uninfected[22].veinsmobility posy ETV
vector 107 TestScenario.uninfected[20].veinsmobility acceleration ETV
vector 108 TestScenario.uninfected[20].veinsmobility co2emission ETV
vector 109 TestScenario.uninfected[21].veinsmobility speed ETV
vector 110 TestScenario.uninfected[23].veinsmobility posx ETV
vector 111 TestScenario.uninfected[23].veinsmobility posy ETV
vector 112 TestScenario.uninfected[21].veinsmobility acceleration ETV
vector 113 TestScenario.uninfected[21].veinsmobility co2emission ETV
vector 114 TestScenario.uninfected[22].veinsmobility speed ETV
vector 115 TestScenario.uninfected[24].veinsmobility posx ETV
vector 116 TestScenario.uninfected[24].veinsmobility posy ETV
vector 117 TestScenario.uninfected[22].veinsmobility acceleration ETV
vector 118 TestScenario.uninfected[22].veinsmobility co2emission ETV
vector 119 TestScenario.uninfected[23].veinsmobility speed ETV
vector 120 TestScenario.uninfected[25].veinsmobility posx ETV
vector 121 TestScenario.uninfected[25].veinsmobility posy ETV
vector 122 TestScenario.uninfected[23].veinsmobility acceleration ETV
vector 123 TestScenario.uninfected[23].veinsmobility co2emission ETV
vector 124 TestScenario.uninfected[24].veinsmobility speed ETV
vector 125 TestScenario.uninfected[26].veinsmobility posx ETV
vector 126 TestScenario.uninfected[26].veinsmobility posy ETV
vector 127 TestScenario.uninfected[24].veinsmobility acceleration ETV
vector 128 TestScenario.uninfected[24].veinsmobility co2emission ETV
vector 129 TestScenario.uninfected[25].veinsmobility speed ETV
vector 130 TestScenario.uninfected[27].veinsmobility posx ETV
vector 131 TestScenario.uninfected[27].veinsmobility posy ETV
vector 132 TestScenario.uninfected[25].veinsmobility acceleration ETV
vector 133 TestScenario.uninfected[25].veinsmobility co2emission ETV
vector 134 TestScenario.uninfected[26].veinsmobility speed ETV
vector 135 TestScenario.uninfected[28].veinsmobility posx ETV
vector 136 TestScenario.uninfected[28].veinsmobility posy ETV
vector 137 TestScenario.uninfected[26].veinsmobility acceleration ETV
vector 138 TestScenario.uninfected[26].veinsmobility co2emission ETV
vector 139 TestScenario.uninfected[27].veinsmobility speed ETV
vector 140 TestScenario.uninfected[29].veinsmobility posx ETV
vector 141 TestScenario.uninfected[29].veinsmobility posy ETV
vector 142 TestScenario.uninfected[27].veinsmobility acceleration ETV
vector 143 TestScenario.uninfected[27].veinsmobility co2emission ETV
vector 144 TestScenario.uninfected[28].veinsmobility speed ETV
vector 145 TestScenario.uninfected[30].veinsmobility posx ETV
vector 146 TestScenario.uninfected[30].veinsmobility posy ETV
vector 147 TestScenario.uninfected[28].veinsmobility acceleration ETV
vector 148 TestScenario.uninfected[28].veinsmobility co2emission ETV
vector 149 TestScenario.uninfected[29].veinsmobility speed ETV
vector 150 TestScenario.uninfected[31].veinsmobility posx ETV
vector 151 TestScenario.uninfected[31].veinsmobility posy ETV
vector 152 TestScenario.uninfected[29].veinsmobility acceleration ETV
vector 153 TestScenario.uninfected[29].veinsmobility co2emission ETV
vector 154 TestScenario.uninfected[30].veinsmobility speed ETV
vector 155 TestScenario.uninfected[32].veinsmobility posx ETV
vector 156 TestScenario.uninfected[32].veinsmobility posy ETV
vector 157 TestScenario.uninfected[30].veinsmobility acceleration ETV
vector 158 TestScenario.uninfected[30].veinsmobility co2emission ETV
vector 159 TestScenario.uninfected[31].veinsmobility speed ETV
vector 160 TestScenario.uninfected[33].veinsmobility posx ETV
vector 161 TestScenario.uninfected[33].veinsmobility posy ETV
vector 162 TestScenario.uninfected[31].veinsmobility acceleration ETV
vector 163 TestScenario.uninfected[31].veinsmobility co2emission ETV
vector 164 TestScenario.uninfected[32].veinsmobility speed ETV
13	71	4	4.3963491482435
13	129	5	5.2243668643481
13	223	6	5.9996266345595
13	318	7	7.2897778672873
13	434	8	8.8891102605953
13	572	9	2.0888619953199
13	737	10	1.9802089545085
13	918	11	2.4123263422403
13	1117	12	1.8447448357645
13	1357	13	2.0682778386761
13	1609	14	1.9718974112539
13	1875	15	1.8572791474781
13	2223	16	2.3038062721852
13	2600	17	0.973
13	2982	18	0.973
13	3450	19	0.973
13	3923	20	3.1305970030728
13	4471	21	4.6441210521443
13	5045	22	5.3099675758789
13	5650	23	6.8285492032548
13	6387	24	8.4355948481546
13	7172	25	5.0773869340818
13	7952	26	2.1288693870883
13	8879	27	2.0637278536456
13	9783	28	1.9003954378939
13	10781	29	1.896495411612
13	11827	30	2.128398007752
13	12966	31	2.3218842437956
13	14188	32	1.705646071657
13	15574	33	2.1225380740483
13	17096	34	2.0679069849141
12	71	4	2.0812686025072
12	129	5	1.9415802837908
12	223	6	1.8483462795313
12	318	7	1.9438112703687
12	434	8	2.0748186134128
12	572	9	0.022040052001694
12	737	10	-0.010387579360977
12	918	11	0.11541137654102
12	1117	12	-0.052894115590025
12	1357	13	0.013766210682224
12	1609	14	-0.014702402595431
12	1875	15	-0.047822284514549
12	2223	16	0.083619871947448
12	2600	17	-2.4889611220847
12	2982	18	-4.4584823013013
12	3450	19	-3.1062969661194
12	3923	20	1.4000294586201
12	4471	21	1.8570222838386
12	5045	22	1.7480292821792
12	5650	23	1.9586866548541
12	6387	24	2.0985532370117
12	7172	25	0.9208322183299
12	7952	26	0.032490457564126
12	8879	27	0.012541422352662
12	9783	28	-0.035464136679657
12	10781	29	-0.035647726922763
12	11827	30	0.033180405991153
12	12966	31	0.088126322573515
12	14188	32	-0.093835422194097
12	15574	33	0.030605776249431
12	17096	34	0.013771802752744
9	31	3	3.8605596513442
9	71	4	5.9418282538514
9	129	5	7.8834085376422
9	223	6	9.7317548171735
9	318	7	11.675566087542
9	434	8	13.750384700955
9	572	9	13.772424752957
9	737	10	13.762037173596
9	918	11	13.877448550137
9	1117	12	13.824554434547
9	1357	13	13.838320645229
9	1609	14	13.823618242634
9	1875	15	13.775795958119
9	2223	16	13.859415830066
9	2600	17	11.370454707982
9	2982	18	6.9119724066804
9	3450	19	3.805675440561
9	3923	20	5.2057048991811
9	4471	21	7.0627271830197
9	5045	22	8.8107564651989
9	5650	23	10.769443120053
9	6387	24	12.867996357065
9	7172	25	13.788828575395
9	7952	26	13.821319032959
9	8879	27	13.833860455311
9	9783	28	13.798396318632
9	10781	29	13.762748591709
9	11827	30	13.7959289977
9	12966	31	13.884055320274
9	14188	32	13.79021989808
9	15574	33	13.820825674329
9	17096	34	13.834597477082
3	12	2	823.4
3	31	3	823.4
3	71	4	823.4
3	129	5	823.4
3	223	6	823.4
3	318	7	823.4
3	434	8	823.4
3	572	9	823.4
3	737	10	823.4
3	918	11	823.4
3	1117	12	823.4
3	1357	13	823.4
3	1609	14	823.4
3	1875	15	823.4
3	2223	16	823.4
3	2600	17	823.4
3	2982	18	823.4
3	3450	19	823.4
3	3923	20	822.79574560364
3	4471	21	818.46220748903
3	5045	22	812.2783015618
3	5650	23	804.21975449059
3	6387	24	794.32287838608
3	7172	25	782.40039330842
3	7952	26	768.74551799703
3	8879	27	754.90896073168
3	9783	28	741.07940292337
3	10781	29	727.25771949546
3	11827	30	713.43521344444
3	12966	31	699.6352869333
3	14188	32	685.82937811608
3	15574	33	672.00987254965
3	17096	34	658.17748147903
2	12	2	211.61882214952
2	31	3	211.61882214952
2	71	4	208.5598590294
2	129	5	203.53042320467
2	223	6	196.46786351197
2	318	7	187.59526837881
2	434	8	176.80308745446
2	572	9	164.00579972206
2	737	10	150.19162237805
2	918	11	136.38893132047
2	1117	12	122.56872522552
2	1357	13	108.73286307523
2	1609	14	94.883514324991
2	1875	15	81.047918083856
2	2223	16	67.214632219221
2	2600	17	53.377174530606
2	2982	18	40.348528887128
2	3450	19	31.429464773425
2	3923	20	26.877447362184
2	4471	21	26.6
2	5045	22	26.6
2	5650	23	26.6
2	6387	24	26.6
2	7172	25	26.6
2	7952	26	26.6
2	8879	27	26.6
2	9783	28	26.6
2	10781	29	26.6
2	11827	30	26.6
2	12966	31	26.6
2	14188	32	26.6
2	15574	33	26.6
2	17096	34	26.6
vector 165 TestScenario.uninfected[34].veinsmobility posx ETV
vector 166 TestScenario.uninfected[34].veinsmobility posy ETV
vector 167 TestScenario.uninfected[32].veinsmobility acceleration ETV
vector 168 TestScenario.uninfected[32].veinsmobility co2emission ETV
vector 169 TestScenario.uninfected[33].veinsmobility speed ETV
vector 170 TestScenario.uninfected[35].veinsmobility posx ETV
vector 171 TestScenario.uninfected[35].veinsmobility posy ETV
vector 172 TestScenario.uninfected[33].veinsmobility acceleration ETV
vector 173 TestScenario.uninfected[33].veinsmobility co2emission ETV
vector 174 TestScenario.uninfected[34].veinsmobility speed ETV
vector 175 TestScenario.uninfected[36].veinsmobility posx ETV
vector 176 TestScenario.uninfected[36].veinsmobility posy ETV
vector 177 TestScenario.uninfected[34].veinsmobility acceleration ETV
vector 178 TestScenario.uninfected[34].veinsmobility co2emission ETV
vector 179 TestScenario.uninfected[35].veinsmobility speed ETV
vector 180 TestScenario.uninfected[37].veinsmobility posx ETV
vector 181 TestScenario.uninfected[37].veinsmobility posy ETV
vector 182 TestScenario.uninfected[35].veinsmobility acceleration ETV
vector 183 TestScenario.uninfected[35].veinsmobility co2emission ETV
vector 184 TestScenario.uninfected[36].veinsmobility speed ETV
vector 185 TestScenario.uninfected[38].veinsmobility posx ETV
vector 186 TestScenario.uninfected[38].veinsmobility posy ETV
vector 187 TestScenario.uninfected[36].veinsmobility acceleration ETV
vector 188 TestScenario.uninfected[36].veinsmobility co2emission ETV
vector 189 TestScenario.uninfected[37].veinsmobility speed ETV
123	7952	26	4.2470345014708
123	8879	27	5.0661862330681
123	9783	28	6.079950978797
123	10781	29	7.3230243331942
123	11827	30	8.9240235753903
123	12966	31	2.0109722434713
123	14188	32	2.0568716109504
123	15574	33	2.0977885387911
123	17096	34	2.1720902235983
123	18688	35	1.8230411974377
123	20427	36	2.0189594074369
123	22007	37	1.9292226181057
123	23679	38	2.3634327480944
123	25374	39	1.7043247179307
122	7952	26	1.9364937728643
122	8879	27	1.8525407982757
122	9783	28	1.8723921852489
122	10781	29	1.9461807617871
122	11827	30	2.0763844653475
122	12966	31	-0.0021890662840196
122	14188	32	0.011262865008321
122	15574	33	0.022826147866436
122	17096	34	0.043649995091837
122	18688	35	-0.059190001026728
122	20427	36	-0.00034008425427601
122	22007	37	-0.026536865823436
122	23679	38	0.10033341131639
122	25374	39	-0.094352283519694
119	7172	25	4.1158313905864
119	7952	26	6.0523251634507
119	8879	27	7.9048659617264
119	9783	28	9.7772581469753
119	10781	29	11.723438908762
119	11827	30	13.79982337411
119	12966	31	13.797634307826
119	14188	32	13.808897172834
119	15574	33	13.831723320701
119	17096	34	13.875373315793
119	18688	35	13.816183314766
119	20427	36	13.815843230512
119	22007	37	13.789306364688
119	23679	38	13.889639776004
119	25374	39	13.795287492485
111	6387	24	823.4
111	7172	25	823.4
111	7952	26	823.4
111	8879	27	823.4
111	9783	28	823.4
111	10781	29	823.4
111	11827	30	823.4
111	12966	31	823.4
111	14188	32	823.4
111	15574	33	823.4
111	17096	34	823.4
111	18688	35	823.4
111	20427	36	823.4
111	22007	37	823.4
111	23679	38	823.4
111	25374	39	823.4
110	6387	24	611.62701314464
110	7172	25	611.62701314464
110	7952	26	608.43310068086
110	8879	27	603.22692362814
110	9783	28	596.16139052411
110	10781	29	587.24297944746
110	11827	30	576.36809636932
110	12966	31	563.49212675836
110	14188	32	549.68511629315
110	15574	33	535.87678401278
110	17096	34	522.0441472438
110	18688	35	508.224764468
110	20427	36	494.40301501719
110	22007	37	480.57269620973
110	23679	38	466.73190518509
110	25374	39	452.88808255527
vector 190 TestScenario.uninfected[39].veinsmobility posx ETV
vector 191 TestScenario.uninfected[39].veinsmobility posy ETV
vector 192 TestScenario.uninfected[37].veinsmobility acceleration ETV
vector 193 TestScenario.uninfected[37].veinsmobility co2emission ETV
vector 194 TestScenario.uninfected[38].veinsmobility speed ETV
10	71	4	226.6
10	129	5	226.6
10	223	6	226.6
10	318	7	226.6
10	434	8	226.6
10	572	9	226.6
10	737	10	226.6
10	918	11	226.6
10	1117	12	226.6
10	1357	13	226.6
10	1609	14	226.6
10	1875	15	226.6
10	2223	16	226.6
10	2600	17	226.6
10	2982	18	226.6
10	3450	19	226.6
10	3923	20	226.6
10	4471	21	226.6
10	5045	22	226.6
10	5650	23	226.6
10	6387	24	226.6
10	7172	25	226.6
10	7952	26	226.6
10	8879	27	226.6
10	9783	28	226.6
10	10781	29	226.6
10	11827	30	226.6
10	12966	31	226.6
10	14188	32	226.6
10	15574	33	226.6
10	17096	34	226.6
10	18688	35	226.6
10	20427	36	226.6
10	22007	37	226.08895475573
10	23679	38	222.31256254943
10	25374	39	214.72004351183
10	27160	40	205.03807385136
11	71	4	611.63399887184
11	129	5	611.63399887184
11	223	6	608.44140993568
11	318	7	603.24065654773
11	434	8	596.11585985655
11	572	9	586.98487779614
11	737	10	575.69661619577
11	918	11	562.4854202618
11	1117	12	548.65611921134
11	1357	13	534.82768424248
11	1609	14	521.00029293491
11	1875	15	507.17435879345
11	2223	16	493.34425406366
11	2600	17	479.5190156441
11	2982	18	465.69333339905
11	3450	19	451.85975631532
11	3923	20	438.03740382554
11	4471	21	424.19202995781
11	5045	22	410.35006458624
11	5650	23	396.54056952833
11	6387	24	382.70586431078
11	7172	25	368.86794331507
11	7952	26	355.04028404677
11	8879	27	341.22689440211
11	9783	28	327.40072156084
11	10781	29	313.58610689668
11	11827	30	299.74274871486
11	12966	31	285.89502352415
11	14188	32	272.098878221
11	15574	33	258.31424054466
11	17096	34	246.68064143274
11	18688	35	238.21886629666
11	20427	36	232.5742461635
11	22007	37	228.62268329009
11	23679	38	224.34753752966
11	25374	39	223.4
11	27160	40	223.4
15	129	5	426.6
15	223	6	426.6
15	318	7	426.6
15	434	8	426.6
15	572	9	426.6
15	737	10	426.6
15	918	11	426.6
15	1117	12	426.6
15	1357	13	426.6
15	1609	14	426.6
15	1875	15	426.6
15	2223	16	426.6
15	2600	17	426.6
15	2982	18	426.6
15	3450	19	426.6
15	3923	20	426.6
15	4471	21	426.6
15	5045	22	426.6
15	5650	23	426.6
15	6387	24	426.6
15	7172	25	426.6
15	7952	26	426.6
15	8879	27	426.6
15	9783	28	426.6
15	10781	29	426.6
15	11827	30	426.6
15	12966	31	426.6
15	14188	32	426.6
15	15574	33	426.6
15	17096	34	426.6
15	18688	35	426.6
15	20427	36	426.6
15	22007	37	426.6
15	23679	38	426.6
15	25374	39	426.6
15	27160	40	426.6
16	129	5	811.65841929311
16	223	6	811.65841929311
16	318	7	808.5199391547
16	434	8	803.41611344729
16	572	9	796.29559457426
16	737	10	787.28118043964
16	918	11	776.30651759196
16	1117	12	763.42843493657
16	1357	13	749.60805017724
16	1609	14	735.78760342183
16	1875	15	721.97435264293
16	2223	16	708.14144132006
16	2600	17	694.32946708022
16	2982	18	680.50841737917
16	3450	19	666.68654932681
16	3923	20	652.85188518975
16	4471	21	639.02153971796
16	5045	22	625.19471541458
16	5650	23	611.36194712375
16	6387	24	597.53783185867
16	7172	25	583.70671673941
16	7952	26	569.891354149
16	8879	27	556.08583345351
16	9783	28	542.25887613151
16	10781	29	528.41901842942
16	11827	30	514.60414829763
16	12966	31	500.80517335621
16	14188	32	486.99174762452
16	15574	33	473.16913312271
16	17096	34	459.3472158119
16	18688	35	445.53306776023
16	20427	36	431.69169249113
16	22007	37	417.88922362966
16	23679	38	404.05781875365
16	25374	39	390.22866285235
16	27160	40	376.40212644533
19	129	5	4.1837425248161
19	223	6	6.1261965204705
19	318	7	7.9842654910403
19	434	8	10.128425986962
19	572	9	12.218075431841
19	737	10	13.798545677904
19	918	11	13.856701854216
19	1117	12	13.766016220436
19	1357	13	13.793971254437
19	1609	14	13.839712470362
19	1875	15	13.833559774675
19	2223	16	13.882346863034
19	2600	17	13.810882870518
19	2982	18	13.803768670559
19	3450	19	13.791542661723
19	3923	20	13.883917067747
19	4471	21	13.863636515301
19	5045	22	13.805861663795
19	5650	23	13.815844955968
19	6387	24	13.884159127774
19	7172	25	13.787090109992
19	7952	26	13.810807602063
19	8879	27	13.818202637273
19	9783	28	13.860434894296
19	10781	29	13.823537289398
19	11827	30	13.830798039699
19	12966	31	13.76124106969
19	14188	32	13.494546213732
19	15574	33	10.141248531572
19	17096	34	7.1366203790041
19	18688	35	4.4990941601664
19	20427	36	4.6778654594527
19	22007	37	6.7278705952054
19	23679	38	8.6772133033792
19	25374	39	10.522127486072
19	27160	40	12.80764059687
20	223	6	626.6
20	318	7	626.6
20	434	8	626.6
20	572	9	626.6
20	737	10	626.6
20	918	11	626.6
20	1117	12	626.6
20	1357	13	626.6
20	1609	14	626.6
20	1875	15	626.6
20	2223	16	626.6
20	2600	17	626.6
20	2982	18	626.6
20	3450	19	626.6
20	3923	20	626.6
20	4471	21	626.6
20	5045	22	626.6
20	5650	23	626.6
20	6387	24	626.6
20	7172	25	626.01990441344
20	7952	26	623.4215948359
20	8879	27	623.4
20	9783	28	623.4
20	10781	29	623.4
20	11827	30	623.4
20	12966	31	623.4
20	14188	32	623.4
20	15574	33	623.4
20	17096	34	623.4
20	18688	35	623.4
20	20427	36	623.4
20	22007	37	623.4
20	23679	38	623.4
20	25374	39	623.4
20	27160	40	623.4
21	223	6	211.64598335749
21	318	7	211.64598335749
21	434	8	208.61652980736
21	572	9	203.64374644641
21	737	10	196.69506974543
21	918	11	187.71599328133
21	1117	12	176.55774764107
21	1357	13	163.41193521265
21	1609	14	149.57562913917
21	1875	15	135.75500420109
21	2223	16	121.92797415707
21	2600	17	108.09340728599
21	2982	18	94.269107040042
21	3450	19	80.433666123324
21	3923	20	66.591635133702
21	4471	21	54.372581313795
21	5045	22	45.395797624216
21	5650	23	39.298148119265
21	6387	24	35.321580610382
21	7172	25	31.329856620158
21	7952	26	32.167607746156
21	8879	27	36.688859003824
21	9783	28	43.33600415279
21	10781	29	51.883975868337
21	11827	30	62.331013793979
21	12966	31	74.731566484075
21	14188	32	88.495304536694
21	15574	33	102.34480588973
21	17096	34	116.18294502843
21	18688	35	130.00823114255
21	20427	36	143.83921178588
21	22007	37	157.64869725778
21	23679	38	171.4890023286
21	25374	39	185.30547169738
21	27160	40	199.13234399552
22	223	6	1.9424539956544
22	318	7	1.8580689705699
22	434	8	2.144160495922
22	572	9	2.089649444879
22	737	10	1.5804702460627
22	918	11	0.058156176311895
22	1117	12	-0.090685633779502
22	1357	13	0.027955034000334
22	1609	14	0.045741215925663
22	1875	15	-0.0061526956874864
22	2223	16	0.048787088359239
22	2600	17	-0.071463992516509
22	2982	18	-0.0071141999587407
22	3450	19	-0.012226008835714
22	3923	20	0.092374406023882
22	4471	21	-0.020280552445911
22	5045	22	-0.05777485150611
22	5650	23	0.0099832921731284
22	6387	24	0.068314171805977
22	7172	25	-0.09706901778234
22	7952	26	0.023717492071444
22	8879	27	0.0073950352100667
22	9783	28	0.042232257022988
22	10781	29	-0.036897604898551
22	11827	30	0.0072607503016489
22	12966	31	-0.069556970009581
22	14188	32	-0.26669485595754
22	15574	33	-3.3532976821603
22	17096	34	-3.0046281525679
22	18688	35	-2.6375262188377
22	20427	36	0.17877129928633
22	22007	37	2.0500051357527
22	23679	38	1.9493427081738
22	25374	39	1.8449141826923
22	27160	40	2.2855131107988
23	223	6	4.2946323108477
23	318	7	5.11749157018
23	434	8	6.9283691925252
23	572	9	8.0209828473551
23	737	10	7.2741174462118
23	918	11	2.2184410870702
23	1117	12	1.7142022338355
23	1357	13	2.1108137111118
23	1609	14	2.1750719672801
23	1875	15	2.0013723990503
23	2223	16	2.1900591478925
23	2600	17	1.7817277856876
23	2982	18	1.9952042377431
23	3450	19	1.9769999379408
23	3923	20	2.3360814416977
23	4471	21	1.9571741946416
23	5045	22	1.826853394904
23	5650	23	2.0533324883292
23	6387	24	2.2556039139129
23	7172	25	1.6946567250215
23	7952	26	2.0985239665076
23	8879	27	2.0449572567947
23	9783	28	2.1656804881705
23	10781	29	1.8979467999451
23	11827	30	2.0458068265841
23	12966	31	1.7838978960757
23	14188	32	1.1206470666852
23	15574	33	0.973
23	17096	34	0.973
23	18688	35	0.973
23	20427	36	1.5466570216142
23	22007	37	4.7865975943779
23	23679	38	5.6654256634176
23	25374	39	6.4035988045446
23	27160	40	8.9764796230414
24	223	6	4.0393522846261
24	318	7	5.9052617376326
24	434	8	8.039075936182
24	572	9	9.8441749260952
24	737	10	11.888290320721
24	918	11	13.723958272541
24	1117	12	13.778496056341
24	1357	13	13.859758491216
24	1609	14	13.801533117299
24	1875	15	13.882207241184
24	2223	16	13.802720147136
24	2600	17	13.764369304031
24	2982	18	13.795374539634
24	3450	19	13.815375860306
24	3923	20	13.886014063652
24	4471	21	13.826946030189
24	5045	22	13.839853921125
24	5650	23	13.854421919102
24	6387	24	13.778152931214
24	7172	25	13.782965702491
24	7952	26	13.767125304707
24	8879	27	13.7802188363
24	9783	28	13.774581540267
24	10781	29	13.881762029594
24	11827	30	13.778260238601
24	12966	31	13.8299591612
24	14188	32	13.818432570372
24	15574	33	13.880673628345
24	17096	34	13.829084685191
24	18688	35	13.879369226804
24	20427	36	13.770719866583
24	22007	37	13.838752973857
24	23679	38	13.841565604901
24	25374	39	13.843117450478
24	27160	40	13.802101789573
25	318	7	826.6
25	434	8	826.6
25	572	9	826.6
25	737	10	826.6
25	918	11	826.6
25	1117	12	826.6
25	1357	13	826.6
25	1609	14	826.6
25	1875	15	826.6
25	2223	16	826.6
25	2600	17	826.6
25	2982	18	826.6
25	3450	19	826.6
25	3923	20	826.6
25	4471	21	826.6
25	5045	22	826.6
25	5650	23	826.6
25	6387	24	826.6
25	7172	25	826.6
25	7952	26	825.1625969156
25	8879	27	823.4
25	9783	28	823.4
25	10781	29	823.4
25	11827	30	823.4
25	12966	31	823.4
25	14188	32	823.4
25	15574	33	823.4
25	17096	34	823.4
25	18688	35	823.4
25	20427	36	823.4
25	22007	37	823.4
25	23679	38	823.4
25	25374	39	823.4
25	27160	40	823.4
26	318	7	411.64960145386
26	434	8	411.64960145386
26	572	9	408.59352432281
26	737	10	403.50680878578
26	918	11	396.57486241703
26	1117	12	387.8338831889
26	1357	13	377.08657796867
26	1609	14	364.32425572671
26	1875	15	350.48644992107
26	2223	16	336.64508797979
26	2600	17	322.82484098769
26	2982	18	309.00157824181
26	3450	19	295.17944191001
26	3923	20	281.35998187899
26	4471	21	267.5500904263
26	5045	22	254.6591541693
26	5650	23	244.9461708955
26	6387	24	238.17753617376
26	7172	25	233.91519211565
26	7952	26	230.6812984578
26	8879	27	233.33670945069
26	9783	28	238.47283561602
26	10781	29	245.4039627106
26	11827	30	254.24796364625
26	12966	31	265.11778614603
26	14188	32	277.98987401783
26	15574	33	291.82199087238
26	17096	34	305.65033679107
26	18688	35	319.48559153208
26	20427	36	333.31681587024
26	22007	37	347.15404953026
26	23679	38	360.9792101339
26	25374	39	374.77098144884
26	27160	40	388.60570293304
27	318	7	1.8659094530065
27	434	8	2.1338141985494
27	572	9	1.8050989899132
27	737	10	2.0441153946263
27	918	11	1.8356679518195
27	1117	12	0.05453778380015
27	1357	13	0.081262434874661
27	1609	14	-0.058225373916795
27	1875	15	0.08067412388511
27	2223	16	-0.079487094047945
27	2600	17	-0.038350843104999
27	2982	18	0.031005235603079
27	3450	19	0.020001320671289
27	3923	20	0.070638203346171
27	4471	21	-0.05906803346239
27	5045	22	0.012907890935894
27	5650	23	0.014567997977137
27	6387	24	-0.076268987888469
27	7172	25	0.0048127712775017
27	7952	26	-0.015840397784487
27	8879	27	0.01309353159275
27	9783	28	-0.0056372960330933
27	10781	29	0.10718048932729
27	11827	30	-0.10350179099245
27	12966	31	0.051698922598735
27	14188	32	-0.011526590827852
27	15574	33	0.062241057972424
27	17096	34	-0.05158894315362
27	18688	35	0.050284541612491
27	20427	36	-0.10864936022088
27	22007	37	0.068033107274676
27	23679	38	0.0028126310440726
27	25374	39	0.0015518455766141
27	27160	40	-0.041015660904815
28	318	7	4.0693960855429
28	434	8	5.6798880250686
28	572	9	5.9555104999338
28	737	10	7.6952551078099
28	918	11	8.0822547659377
28	1117	12	2.1974189542526
28	1357	13	2.2959736335064
28	1609	14	1.8249777674441
28	1875	15	2.2967249607751
28	2223	16	1.7543548741923
28	2600	17	1.8876779455633
28	2982	18	2.121105825352
28	3450	19	2.0866389984032
28	3923	20	2.2636004855908
28	4471	21	1.8243831049701
28	5045	22	2.0655754291398
28	5650	23	2.0726405949455
28	6387	24	1.7630313945664
28	7172	25	2.0327572452216
28	7952	26	1.9626170505717
28	8879	27	2.0599776391495
28	9783	28	1.9972111120041
28	10781	29	2.3853482192219
28	11827	30	1.6726120680468
28	12966	31	2.1938337458381
28	14188	32	1.981967327719
28	15574	33	2.234876190422
28	17096	34	1.8494955441176
28	18688	35	2.1947303694939
28	20427	36	1.6549564501005
28	22007	37	2.2493107420999
28	23679	38	2.0320782556319
28	25374	39	2.0280303535765
28	27160	40	1.8822720224348
29	318	7	3.9208195363214
29	434	8	5.8707609540919
29	572	9	7.906066119433
29	737	10	9.9490073581641
29	918	11	12.08473446822
29	1117	12	13.817484531056
29	1357	13	13.831619154494
29	1609	14	13.821088438928
29	1875	15	13.822710426713
29	2223	16	13.873900225542
29	2600	17	13.847310737043
29	2982	18	13.778920196572
29	3450	19	13.849105471838
29	3923	20	10.745857493226
29	4471	21	7.5590831720139
29	5045	22	4.9414599938267
29	5650	23	4.1761119953783
29	6387	24	3.6404353871383
29	7172	25	3.6002955662995
29	7952	26	5.4910248384415
29	8879	27	7.560190876089
29	9783	28	9.4007173047494
29	10781	29	11.333586183798
29	11827	30	13.216516093286
29	12966	31	13.767716980739
29	14188	32	13.865610429053
29	15574	33	13.856312485088
29	17096	34	13.818114508074
29	18688	35	13.866538828928
29	20427	36	13.821348987729
29	22007	37	13.806614742549
29	23679	38	13.791744922257
29	25374	39	13.804814737129
29	27160	40	13.780135094807
30	434	8	611.64810680636
30	572	9	611.64810680636
30	737	10	608.68010339678
30	918	11	603.64965893085
30	1117	12	596.46390425666
30	1357	13	587.29583618458
30	1609	14	576.04380603223
30	1875	15	562.89255364879
30	2223	16	549.07636998682
30	2600	17	535.26953360824
30	2982	18	521.45424174461
30	3450	19	507.63265945287
30	3923	20	493.81173749022
30	4471	21	479.97261191678
30	5045	22	466.14825536564
30	5650	23	452.33117394888
30	6387	24	439.80294072862
30	7172	25	431.56565441699
30	7952	26	426.87677092835
30	8879	27	426.6
30	9783	28	426.6
30	10781	29	426.6
30	11827	30	426.6
30	12966	31	426.6
30	14188	32	426.6
30	15574	33	426.6
30	17096	34	426.6
30	18688	35	426.6
30	20427	36	426.6
30	22007	37	426.6
30	23679	38	426.6
30	25374	39	426.6
30	27160	40	426.6
31	434	8	823.4
31	572	9	823.4
31	737	10	823.4
31	918	11	823.4
31	1117	12	823.4
31	1357	13	823.4
31	1609	14	823.4
31	1875	15	823.4
31	2223	16	823.4
31	2600	17	823.4
31	2982	18	823.4
31	3450	19	823.4
31	3923	20	823.4
31	4471	21	823.4
31	5045	22	823.4
31	5650	23	823.4
31	6387	24	823.4
31	7172	25	823.30937920243
31	7952	26	819.73739649842
31	8879	27	812.93199977413
31	9783	28	804.32450025797
31	10781	29	793.84933986415
31	11827	30	781.34418805651
31	12966	31	767.54641461808
31	14188	32	753.7227357714
31	15574	33	739.87502573418
31	17096	34	726.04958781485
31	18688	35	712.22817916646
31	20427	36	698.4101889227
31	22007	37	684.59552658
31	23679	38	670.75349775437
31	25374	39	656.93498919025
31	27160	40	643.48851703936
32	434	8	1.9499414177705
32	572	9	2.0353051653411
32	737	10	2.0429412387311
32	918	11	2.1357271100557
32	1117	12	1.7327500628358
32	1357	13	0.014134623438585
32	1609	14	-0.010530715566128
32	1875	15	0.0016219877847483
32	2223	16	0.051189798829146
32	2600	17	-0.026589488498868
32	2982	18	-0.068390540471301
32	3450	19	0.070185275266413
32	3923	20	-3.1032479786118
32	4471	21	-3.1867743212126
32	5045	22	-2.6176231781872
32	5650	23	-0.76534799844844
32	6387	24	-0.53567660824002
32	7172	25	-0.040139820838813
32	7952	26	1.8907292721421
32	8879	27	2.0691660376475
32	9783	28	1.8405264286604
32	10781	29	1.9328688790486
32	11827	30	1.8829299094877
32	12966	31	0.55120088745375
32	14188	32	0.097893448313698
32	15574	33	-0.0092979439650662
32	17096	34	-0.038197977014351
32	18688	35	0.048424320854245
32	20427	36	-0.045189841198734
32	22007	37	-0.014734245180152
32	23679	38	-0.014869820291642
32	25374	39	0.013069814871997
32	27160	40	-0.024679642322008
33	434	8	4.1707787383362
33	572	9	5.415033008706
33	737	10	6.5792952133712
33	918	11	8.076140285373
33	1117	12	7.7903393408821
33	1357	13	2.0688049146094
33	1609	14	1.98554578524
33	1875	15	2.0261897656441
33	2223	16	2.1971352382966
33	2600	17	1.934543658246
33	2982	18	1.7892567893398
33	3450	19	2.2577129031655
33	3923	20	0.973
33	4471	21	0.973
33	5045	22	0.973
33	5650	23	0.973
33	6387	24	0.973
33	7172	25	1.253161181035
33	7952	26	3.8922534313236
33	8879	27	5.28465474804
33	9783	28	5.8100833331073
33	10781	29	7.0706444575652
33	11827	30	7.9583031381505
33	12966	31	3.8441286219347
33	14188	32	2.3522565979641
33	15574	33	1.9931417740022
33	17096	34	1.8931159041069
33	18688	35	2.1870550524219
33	20427	36	1.8701238415001
33	22007	37	1.9701320814379
33	23679	38	1.9682322326509
33	25374	39	2.0624595671124
33	27160	40	1.9345237432775
34	434	8	3.9761301818291
34	572	9	5.8769773846131
34	737	10	7.8117673657752
34	918	11	9.6169954421918
34	1117	12	11.719312252476
34	1357	13	13.628178203165
34	1609	14	13.80909002508
34	1875	15	13.882059789945
34	2223	16	13.84518664412
34	2600	17	13.824007379091
34	2982	18	13.807129903631
34	3450	19	13.767156605646
34	3923	20	13.860826229753
34	4471	21	11.457581981577
34	5045	22	8.2981611535618
34	5650	23	5.5510343984747
34	6387	24	3.7238081067286
34	7172	25	3.65
34	7952	26	3.9868067313079
34	8879	27	6.0324290461349
34	9783	28	7.6324833448767
34	10781	29	9.7901406834065
34	11827	30	11.786514102924
34	12966	31	13.75649688842
34	14188	32	13.762461390919
34	15574	33	13.869052507093
34	17096	34	13.822168330909
34	18688	35	13.844998696649
34	20427	36	13.850720813803
34	22007	37	13.805706219266
34	23679	38	13.769573362519
34	25374	39	13.887267990485
34	27160	40	13.785328369115
35	572	9	811.64220992029
35	737	10	811.64220992029
35	918	11	808.57986980274
35	1117	12	803.67538153498
35	1357	13	796.87310409974
35	1609	14	788.18118494674
35	1875	15	777.59019409884
35	2223	16	765.03766274549
35	2600	17	751.24721136434
35	2982	18	737.41189142696
35	3450	19	723.58767678856
35	3923	20	709.78938244157
35	4471	21	695.96495516805
35	5045	22	682.15449160178
35	5650	23	668.32259766373
35	6387	24	655.73368161683
35	7172	25	646.37843131355
35	7952	26	639.94066251569
35	8879	27	635.84496297086
35	9783	28	630.55570046087
35	10781	29	626.72942350139
35	11827	30	626.6
35	12966	31	626.6
35	14188	32	626.6
35	15574	33	626.6
35	17096	34	626.6
35	18688	35	626.6
35	20427	36	626.6
35	22007	37	626.6
35	23679	38	626.6
35	25374	39	626.6
35	27160	40	626.6
36	572	9	423.4
36	737	10	423.4
36	918	11	423.4
36	1117	12	423.4
36	1357	13	423.4
36	1609	14	423.4
36	1875	15	423.4
36	2223	16	423.4
36	2600	17	423.4
36	2982	18	423.4
36	3450	19	423.4
36	3923	20	423.4
36	4471	21	423.4
36	5045	22	423.4
36	5650	23	423.4
36	6387	24	423.4
36	7172	25	423.4
36	7952	26	423.4
36	8879	27	423.4
36	9783	28	423.16510006584
36	10781	29	418.7059645097
36	11827	30	411.59043406821
36	12966	31	402.80138220618
36	14188	32	392.18620702881
36	15574	33	379.72335307597
36	17096	34	365.93774479123
36	18688	35	352.09848738339
36	20427	36	338.28664778041
36	22007	37	324.45470522313
36	23679	38	310.62607026925
36	25374	39	296.79353652466
36	27160	40	282.98171565485
37	572	9	1.9008472027839
37	737	10	1.9347899811622
37	918	11	1.8052280764165
37	1117	12	2.1023168102838
37	1357	13	1.9088659506897
37	1609	14	0.18091182191516
37	1875	15	0.072969764864537
37	2223	16	-0.036873145825229
37	2600	17	-0.021179265028332
37	2982	18	-0.01687747546006
37	3450	19	-0.03997329798527
37	3923	20	0.093669624107424
37	4471	21	-2.4032442481767
37	5045	22	-3.159420828015
37	5650	23	-2.7471267550871
37	6387	24	-1.8272262917461
37	7172	25	-0.073808106728585
37	7952	26	0.33680673130788
37	8879	27	2.045622314827
37	9783	28	1.6000542987417
37	10781	29	2.1576573385298
37	11827	30	1.9963734195172
37	12966	31	1.9699827854964
37	14188	32	0.0059645024989816
37	15574	33	0.10659111617366
37	17096	34	-0.046884176183957
37	18688	35	0.022830365740228
37	20427	36	0.0057221171539279
37	22007	37	-0.045014594537207
37	23679	38	-0.036132856747136
37	25374	39	0.11769462796627
37	27160	40	-0.10193962136982
38	572	9	4.1045247158836
38	737	10	5.1733820944468
38	918	11	5.8400593430487
38	1117	12	7.7617161256004
38	1357	13	8.2707077585943
38	1609	14	2.6214817793988
38	1875	15	2.2709315840464
38	2223	16	1.900028569126
38	2600	17	1.9503571903532
38	2982	18	1.9630506817114
38	3450	19	1.8825499038212
38	3923	20	2.3375486070008
38	4471	21	0.973
38	5045	22	0.973
38	5650	23	0.973
38	6387	24	0.973
38	7172	25	1.2256428182613
38	7952	26	1.6317882821621
38	8879	27	4.3952407331984
38	9783	28	4.4624507641168
38	10781	29	6.7597887984196
38	11827	30	7.5006414049831
38	12966	31	8.5452179413821
38	14188	32	2.0344864434943
38	15574	33	2.3817587404774
38	17096	34	1.8645537516443
38	18688	35	2.0992205929112
38	20427	36	2.042724471799
38	22007	37	1.8692954602322
38	23679	38	1.8955145516274
38	25374	39	2.4212392630903
38	27160	40	1.6783387252952
39	572	9	3.7866329477703
39	737	10	6.0647042915899
39	918	11	8.0842136048105
39	1117	12	10.105454298728
39	1357	13	12.081901207317
39	1609	14	13.767188027778
39	1875	15	13.828293162012
39	2223	16	13.778621817816
39	2600	17	13.785650022104
39	2982	18	13.817901559824
39	3450	19	13.804548541019
39	3923	20	13.87384244381
39	4471	21	13.855432267999
39	5045	22	13.767515986164
39	5650	23	10.648718624004
39	6387	24	6.4097580529912
39	7172	25	6.3921557643521
39	7952	26	7.5719246037141
39	8879	27	9.5069203858566
39	9783	28	11.274988418943
39	10781	29	13.391622998575
39	11827	30	13.887499832131
39	12966	31	13.874254595982
39	14188	32	13.886184984928
39	15574	33	13.830864254001
39	17096	34	13.795183236715
39	18688	35	13.872320950453
39	20427	36	13.81977508218
39	22007	37	13.877011950968
39	23679	38	13.765383125967
39	25374	39	12.261678582846
39	27160	40	7.8278197198122
40	737	10	423.4
40	918	11	423.4
40	1117	12	423.4
40	1357	13	423.4
40	1609	14	423.4
40	1875	15	423.4
40	2223	16	423.4
40	2600	17	423.4
40	2982	18	423.4
40	3450	19	423.4
40	3923	20	423.4
40	4471	21	423.4
40	5045	22	423.4
40	5650	23	423.4
40	6387	24	423.4
40	7172	25	423.4
40	7952	26	423.4
40	8879	27	423.4
40	9783	28	423.60208225004
40	10781	29	424.95718711546
40	11827	30	430.42064012542
40	12966	31	438.82172447121
40	14188	32	449.21211588627
40	15574	33	461.50658987723
40	17096	34	475.26817259439
40	18688	35	489.09491457475
40	20427	36	502.9121167578
40	22007	37	516.72080738827
40	23679	38	530.54960151123
40	25374	39	544.3556645937
40	27160	40	558.18291029942
41	737	10	438.37394646382
41	918	11	438.37394646382
41	1117	12	441.58845933473
41	1357	13	446.83619563402
41	1609	14	454.10210413421
41	1875	15	463.41379122539
41	2223	16	474.52489119191
41	2600	17	487.61989248204
41	2982	18	501.46260263839
41	3450	19	515.2955786829
41	3923	20	529.09595643714
41	4471	21	542.93415907148
41	5045	22	556.77824800036
41	5650	23	570.59691439604
41	6387	24	584.41417716998
41	7172	25	597.58210501559
41	7952	26	607.678181208
41	8879	27	614.77228717031
41	9783	28	619.2145757503
41	10781	29	623.32864519243
41	11827	30	626.3458057322
41	12966	31	626.6
41	14188	32	626.6
41	15574	33	626.6
41	17096	34	626.6
41	18688	35	626.6
41	20427	36	626.6
41	22007	37	626.6
41	23679	38	626.6
41	25374	39	626.6
41	27160	40	626.6
42	737	10	2.2780713438196
42	918	11	2.0195093132206
42	1117	12	2.0212406939175
42	1357	13	1.976446908589
42	1609	14	1.6852868204612
42	1875	15	0.061105134233367
42	2223	16	-0.049671344195959
42	2600	17	0.0070282042887992
42	2982	18	0.032251537719276
42	3450	19	-0.013353018804919
42	3923	20	0.069293902791106
42	4471	21	-0.018410175810569
42	5045	22	-0.087916281835641
42	5650	23	-3.1187973621593
42	6387	24	-4.2389605710131
42	7172	25	-0.017602288639173
42	7952	26	1.1797688393621
42	8879	27	1.9349957821425
42	9783	28	1.7680680330866
42	10781	29	2.1166345796315
42	11827	30	0.49587683355669
42	12966	31	-0.013245236149523
42	14188	32	0.01193038894562
42	15574	33	-0.055320730926468
42	17096	34	-0.035681017285679
42	18688	35	0.07713771373732
42	20427	36	-0.052545868272428
42	22007	37	0.057236868788022
42	23679	38	-0.11162882500095
42	25374	39	-1.5037045431215
42	27160	40	-4.4338588630337
43	737	10	4.7527825116008
43	918	11	5.4833907689909
43	1117	12	6.6153783136357
43	1357	13	7.6106484103923
43	1609	14	7.6067800552737
43	1875	15	2.2249916374652
43	2223	16	1.8513914730889
43	2600	17	2.0403916264057
43	2982	18	2.1277012582565
43	3450	19	1.9745258036243
43	3923	20	2.2576614658476
43	4471	21	1.9626272591906
43	5045	22	1.723509208912
43	5650	23	0.973
43	6387	24	0.973
43	7172	25	1.4153687347512
43	7952	26	3.6682560868691
43	8879	27	6.0813904518894
43	9783	28	6.5906376383927
43	10781	29	8.8090550130462
43	11827	30	3.6870026960634
43	12966	31	1.9817244818352
43	14188	32	2.0671509297763
43	15574	33	1.837214657736
43	17096	34	1.8993773499833
43	18688	35	2.2837051652971
43	20427	36	1.8454820099954
43	22007	37	2.2177133458639
43	23679	38	1.6446741389829
43	25374	39	0.973
43	27160	40	0.973
44	737	10	3.9024381770133
44	918	11	5.7708418230792
44	1117	12	7.557713940999
44	1357	13	9.5422919798535
44	1609	14	11.455618381825
44	1875	15	13.349124599421
44	2223	16	13.797210306888
44	2600	17	13.850947521667
44	2982	18	13.784447986854
44	3450	19	13.817229350221
44	3923	20	13.766022158863
44	4471	21	13.86873735718
44	5045	22	13.84542029673
44	5650	23	11.123409905251
44	6387	24	7.99115038282
44	7172	25	5.1994455021561
44	7952	26	3.9121455000776
44	8879	27	6.2722406836126
44	9783	28	6.4448923358438
44	10781	29	7.9247402578266
44	11827	30	9.5899777981546
44	12966	31	11.450514217962
44	14188	32	13.421630499221
44	15574	33	13.779964598585
44	17096	34	13.877882378786
44	18688	35	13.833710496309
44	20427	36	13.844950557509
44	22007	37	13.868093370565
44	23679	38	13.850845584515
44	25374	39	13.831599542778
44	27160	40	13.846195027838
45	918	11	811.61667995088
45	1117	12	811.61667995088
45	1357	13	808.46766755308
45	1609	14	803.54177084323
45	1875	15	796.79941365156
45	2223	16	788.06594958556
45	2600	17	777.35439490477
45	2982	18	764.67866662062
45	3450	19	750.86396264108
45	3923	20	737.0394211713
45	4471	21	723.22053900422
45	5045	22	709.40593737318
45	5650	23	695.58402530303
45	6387	24	681.74881111305
45	7172	25	667.94327318831
45	7952	26	655.44409071837
45	8879	27	646.15166288385
45	9783	28	639.78754491661
45	10781	29	635.73701852573
45	11827	30	630.48867371355
45	12966	31	623.12731425832
45	14188	32	613.77952670263
45	15574	33	602.59769490087
45	17096	34	589.54793672946
45	18688	35	575.71843641943
45	20427	36	561.8785363605
45	22007	37	548.07422587241
45	23679	38	534.26322385438
45	25374	39	520.43639832367
45	27160	40	506.59909780388
46	918	11	623.4
46	1117	12	623.4
46	1357	13	623.4
46	1609	14	623.4
46	1875	15	623.4
46	2223	16	623.4
46	2600	17	623.4
46	2982	18	623.4
46	3450	19	623.4
46	3923	20	623.4
46	4471	21	623.4
46	5045	22	623.4
46	5650	23	623.4
46	6387	24	623.4
46	7172	25	623.4
46	7952	26	623.4
46	8879	27	623.4
46	9783	28	623.4
46	10781	29	623.4
46	11827	30	623.4
46	12966	31	623.4
46	14188	32	623.4
46	15574	33	623.4
46	17096	34	623.4
46	18688	35	623.4
46	20427	36	623.4
46	22007	37	623.4
46	23679	38	623.4
46	25374	39	623.4
46	27160	40	623.4
47	918	11	1.8684036460659
47	1117	12	1.7868721179198
47	1357	13	1.9845780388545
47	1609	14	1.9133264019713
47	1875	15	1.8935062175966
47	2223	16	0.44808570746704
47	2600	17	0.053737214778085
47	2982	18	-0.066499534812756
47	3450	19	0.032781363367102
47	3923	20	-0.051207191357388
47	4471	21	0.10271519831615
47	5045	22	-0.023317060449626
47	5650	23	-2.722010391479
47	6387	24	-3.1322595224311
47	7172	25	-2.7917048806638
47	7952	26	-1.2873000020785
47	8879	27	2.360095183535
47	9783	28	0.17265165223118
47	10781	29	1.4798479219829
47	11827	30	1.6652375403279
47	12966	31	1.8605364198075
47	14188	32	1.9711162812589
47	15574	33	0.35833409936401
47	17096	34	0.097917780200952
47	18688	35	-0.044171882476657
47	20427	36	0.011240061200224
47	22007	37	0.02314281305531
47	23679	38	-0.017247786049266
47	25374	39	-0.019246041737496
47	27160	40	0.014595485059544
48	918	11	4.0046642824589
48	1117	12	4.7690881648102
48	1357	13	6.2145049806578
48	1609	14	7.0838146258346
48	1875	15	8.0653856214616
48	2223	16	3.5081507594219
48	2600	17	2.2030259322847
48	2982	18	1.7960053305608
48	3450	19	2.1293923319692
48	3923	20	1.845176830672
48	4471	21	2.3687639075731
48	5045	22	1.9452833945891
48	5650	23	0.973
48	6387	24	0.973
48	7172	25	0.973
48	7952	26	0.973
48	8879	27	5.0029114473274
48	9783	28	1.7137971901526
48	10781	29	4.36457101912
48	11827	30	5.5027671814527
48	12966	31	6.9353514026294
48	14188	32	8.3566090274321
48	15574	33	3.2064852682722
48	17096	34	2.3538739402717
48	18688	35	1.8746343519411
48	20427	36	2.0605428549559
48	22007	37	2.1027349123678
48	23679	38	1.9660625241437
48	25374	39	1.9575312355636
48	27160	40	2.0718691989574
49	918	11	4.1564618187956
49	1117	12	6.166267852108
49	1357	13	8.2056421901472
49	1609	14	10.112675556927
49	1875	15	11.954567162455
49	2223	16	13.83804324161
49	2600	17	13.781272676142
49	2982	18	13.886651660271
49	3450	19	13.822747609084
49	3923	20	13.860972083085
49	4471	21	13.782340940828
49	5045	22	13.774525544678
49	5650	23	13.80925175742
49	6387	24	11.946793856814
49	7172	25	8.6926143188998
49	7952	26	5.8765422630045
49	8879	27	3.4112935226373
49	9783	28	5.5878291332494
49	10781	29	7.4470457226229
49	11827	30	9.2738123680488
49	12966	31	11.290408639186
49	14188	32	13.121972770274
49	15574	33	13.882437068073
49	17096	34	13.792021588366
49	18688	35	13.766889557038
49	20427	36	13.86649087745
49	22007	37	13.849747116286
49	23679	38	13.770336674938
49	25374	39	13.7772350017
49	27160	40	13.831806755336
50	1117	12	238.36776095717
50	1357	13	238.36776095717
50	1609	14	241.50573602156
50	1875	15	246.55727212941
50	2223	16	253.57145596412
50	2600	17	262.48186873567
50	2982	18	273.35168845108
50	3450	19	286.04726159608
50	3923	20	299.8629875826
50	4471	21	313.67073871686
50	5045	22	327.50546020443
50	5650	23	341.32827258319
50	6387	24	355.15969700793
50	7172	25	368.96633752061
50	7952	26	382.7878150517
50	8879	27	395.6083291606
50	9783	28	405.26367117351
50	10781	29	411.94002176168
50	11827	30	416.15737506815
50	12966	31	419.33184304172
50	14188	32	416.6156321927
50	15574	33	411.50005279105
50	17096	34	404.51420464506
50	18688	35	395.68167775801
50	20427	36	385.02842006573
50	22007	37	372.4355582808
50	23679	38	358.63975839243
50	25374	39	344.8311329559
50	27160	40	331.00358174487
51	1117	12	826.6
51	1357	13	826.6
51	1609	14	826.6
51	1875	15	826.6
51	2223	16	826.6
51	2600	17	826.6
51	2982	18	826.6
51	3450	19	826.6
51	3923	20	826.6
51	4471	21	826.6
51	5045	22	826.6
51	5650	23	826.6
51	6387	24	826.6
51	7172	25	826.6
51	7952	26	826.6
51	8879	27	826.6
51	9783	28	826.6
51	10781	29	826.6
51	11827	30	826.6
51	12966	31	825.13631391656
51	14188	32	823.4
51	15574	33	823.4
51	17096	34	823.4
51	18688	35	823.4
51	20427	36	823.4
51	22007	37	823.4
51	23679	38	823.4
51	25374	39	823.4
51	27160	40	823.4
52	1117	12	2.0098060333123
52	1357	13	2.0393743380392
52	1609	14	1.9070333667798
52	1875	15	1.8418916055281
52	2223	16	1.8834760791553
52	2600	17	-0.056770565467888
52	2982	18	0.10537898412906
52	3450	19	-0.063904051186983
52	3923	20	0.038224474000744
52	4471	21	-0.078631142256782
52	5045	22	-0.0078153961501073
52	5650	23	0.034726212741807
52	6387	24	-1.8624579006057
52	7172	25	-3.2541795379146
52	7952	26	-2.8160720558952
52	8879	27	-2.4652487403672
52	9783	28	2.176535610612
52	10781	29	1.8592165893735
52	11827	30	1.8267666454259
52	12966	31	2.0165962711372
52	14188	32	1.8315641310881
52	15574	33	0.76046429779847
52	17096	34	-0.090415479706135
52	18688	35	-0.025132031328976
52	20427	36	0.099601320412475
52	22007	37	-0.016743761163671
52	23679	38	-0.079410441347862
52	25374	39	0.0068983267620197
52	27160	40	0.054571753635537
53	1117	12	4.4158333954915
53	1357	13	5.5898647927016
53	1609	14	6.3411078593907
53	1875	15	7.1510958354444
53	2223	16	8.3036721827022
53	2600	17	1.8280485687585
53	2982	18	2.3799425531383
53	3450	19	1.8079078171878
53	3923	20	2.1523524950946
53	4471	21	1.7555308470563
53	5045	22	1.9899749891473
53	5650	23	2.1349951349256
53	6387	24	0.973
53	7172	25	0.973
53	7952	26	0.973
53	8879	27	0.973
53	9783	28	4.3267428312223
53	10781	29	4.8442048383946
53	11827	30	5.7138513250788
53	12966	31	7.2747386212535
53	14188	32	7.7438569130205
53	15574	33	4.5711045693871
53	17096	34	1.7171546771429
53	18688	35	1.9317662240664
53	20427	36	2.3580741652027
53	22007	37	1.9676380305879
53	23679	38	1.7519616322658
53	25374	39	2.0390972648991
53	27160	40	2.2036203257841
54	1117	12	3.9706238567036
54	1357	13	5.6597002274262
54	1609	14	7.6467638217353
54	1875	15	9.56469267569
54	2223	16	11.638269825142
54	2600	17	13.534212364685
54	2982	18	13.827680007757
54	3450	19	13.8165933506
54	3923	20	13.814298434651
54	4471	21	13.776010856172
54	5045	22	13.811525575405
54	5650	23	13.857178484064
54	6387	24	13.776511224837
54	7172	25	11.003098967505
54	7952	26	7.8651474744529
54	8879	27	5.1387068320354
54	9783	28	3.876872182942
54	10781	29	6.1943684812979
54	11827	30	8.3067853358127
54	12966	31	10.235137014561
54	14188	32	11.963331638306
54	15574	33	13.779028772581
54	17096	34	13.86219811101
54	18688	35	13.803616140352
54	20427	36	13.792517831142
54	22007	37	13.794075432841
54	23679	38	13.86851549631
54	25374	39	13.866740993967
54	27160	40	13.86294404204
55	1357	13	623.4
55	1609	14	623.4
55	1875	15	623.4
55	2223	16	623.4
55	2600	17	623.4
55	2982	18	623.4
55	3450	19	623.4
55	3923	20	623.4
55	4471	21	623.4
55	5045	22	623.4
55	5650	23	623.4
55	6387	24	623.4
55	7172	25	623.4
55	7952	26	623.4
55	8879	27	623.4
55	9783	28	623.4
55	10781	29	623.4
55	11827	30	623.4
55	12966	31	623.4
55	14188	32	623.4
55	15574	33	623.4
55	17096	34	623.4
55	18688	35	623.4
55	20427	36	623.4
55	22007	37	623.4
55	23679	38	623.4
55	25374	39	623.4
55	27160	40	623.4
56	1357	13	38.36469348464
56	1609	14	38.36469348464
56	1875	15	41.410004064334
56	2223	16	46.540816609839
56	2600	17	53.790355671318
56	2982	18	62.991240554148
56	3450	19	73.974017060907
56	3923	20	86.776185382959
56	4471	21	100.60371847494
56	5045	22	114.42314168122
56	5650	23	128.25215650482
56	6387	24	142.08487025661
56	7172	25	155.90724621056
56	7952	26	169.72565504572
56	8879	27	183.55329423936
56	9783	28	197.38903791017
56	10781	29	211.20265151857
56	11827	30	225.02719750035
56	12966	31	238.87124166522
56	14188	32	252.71183888213
56	15574	33	266.53911575728
56	17096	34	280.36713030694
56	18688	35	294.21827076365
56	20427	36	308.07735913142
56	22007	37	321.92293548021
56	23679	38	335.75302514477
56	25374	39	349.58724911914
56	27160	40	363.38925368531
57	1357	13	1.6890763707226
57	1609	14	1.9870635943091
57	1875	15	1.9179288539547
57	2223	16	2.0735771494522
57	2600	17	1.8959425395424
57	2982	18	0.29346764307257
57	3450	19	-0.011086657156703
57	3923	20	-0.0022949159494594
57	4471	21	-0.03828757847892
57	5045	22	0.035514719232451
57	5650	23	0.045652908659539
57	6387	24	-0.080667259227484
57	7172	25	-2.7734122573316
57	7952	26	-3.1379514930521
57	8879	27	-2.7264406424176
57	9783	28	-1.2618346490934
57	10781	29	2.317496298356
57	11827	30	2.1124168545147
57	12966	31	1.9283516787482
57	14188	32	1.7281946237455
57	15574	33	1.815697134275
57	17096	34	0.083169338428414
57	18688	35	-0.058581970657686
57	20427	36	-0.011098309210503
57	22007	37	0.0015576016996057
57	23679	38	0.074440063468646
57	25374	39	-0.0017745023430322
57	27160	40	-0.0037969519267786
58	1357	13	3.703651040984
58	1609	14	5.1820852283218
58	1875	15	6.07323364163
58	2223	16	7.6330727523782
58	2600	17	8.1759909172796
58	2982	18	2.9992618317472
58	3450	19	1.9832512869468
58	3923	20	2.0122951883858
58	4471	21	1.8889537412572
58	5045	22	2.1378686467134
58	5650	23	2.1767404607359
58	6387	24	1.7482931400601
58	7172	25	0.973
58	7952	26	0.973
58	8879	27	0.973
58	9783	28	0.973
58	10781	29	4.8904305426925
58	11827	30	5.7925918158368
58	12966	31	6.4593962442696
58	14188	32	6.8279496068415
58	15574	33	8.0458424360247
58	17096	34	2.3026395611367
58	18688	35	1.8239727212405
58	20427	36	1.9808439847167
58	22007	37	2.0230700425551
58	23679	38	2.2742315577439
58	25374	39	2.0193192641722
58	27160	40	2.0121784978058
59	1357	13	3.9853952824664
59	1609	14	5.951567368681
59	1875	15	7.8807481533046
59	2223	16	9.7536250512548
59	2600	17	11.72041059737
59	2982	18	13.547779744131
59	3450	19	13.826954465271
59	3923	20	13.819824260511
59	4471	21	13.761935871921
59	5045	22	13.778159612054
59	5650	23	13.877284679334
59	6387	24	13.86271813879
59	7172	25	13.769989326852
59	7952	26	11.379242692615
59	8879	27	8.2510618207575
59	9783	28	5.4156350118362
59	10781	29	3.6998942359998
59	11827	30	3.65
59	12966	31	4.1399807154224
59	14188	32	5.9775512095122
59	15574	33	7.7283726485027
59	17096	34	9.5881734261848
59	18688	35	11.548667583656
59	20427	36	13.435037214216
59	22007	37	13.826937410503
59	23679	38	13.860661931748
59	25374	39	13.888934111441
59	27160	40	13.813107488379
60	1609	14	26.6
60	1875	15	26.6
60	2223	16	26.6
60	2600	17	26.6
60	2982	18	26.6
60	3450	19	26.6
60	3923	20	26.6
60	4471	21	26.6
60	5045	22	26.6
60	5650	23	26.6
60	6387	24	26.6
60	7172	25	26.6
60	7952	26	26.6
60	8879	27	26.6
60	9783	28	26.6
60	10781	29	26.6
60	11827	30	26.6
60	12966	31	26.6
60	14188	32	26.6
60	15574	33	26.6
60	17096	34	26.6
60	18688	35	26.6
60	20427	36	26.6
60	22007	37	26.6
60	23679	38	26.6
60	25374	39	26.6
60	27160	40	26.6
61	1609	14	411.64691181547
61	1875	15	411.64691181547
61	2223	16	408.67835709193
61	2600	17	403.89903919423
61	2982	18	397.16096714621
61	3450	19	388.45330929676
61	3923	20	377.91473119279
61	4471	21	365.49708532574
61	5045	22	351.77263602147
61	5650	23	337.95033057485
61	6387	24	324.1464695734
61	7172	25	310.31660508002
61	7952	26	296.49178155407
61	8879	27	282.67199670986
61	9783	28	268.838870112
61	10781	29	255.00018601618
61	11827	30	241.17977762942
61	12966	31	227.34711814149
61	14188	32	213.5246425058
61	15574	33	199.70021931789
61	17096	34	185.87796503548
61	18688	35	172.05143623123
61	20427	36	158.21410547044
61	22007	37	144.37016457664
61	23679	38	130.53619591817
61	25374	39	116.705411675
61	27160	40	102.89012583293
62	1609	14	1.9661720862146
62	1875	15	1.9291807846236
62	2223	16	1.8728768979502
62	2600	17	1.9667855461151
62	2982	18	1.8273691467615
62	3450	19	0.27917472113957
62	3923	20	-0.00713020476047
62	4471	21	-0.05788838858949
62	5045	22	0.016223740132991
62	5650	23	0.099125067279674
62	6387	24	-0.014566540543456
62	7172	25	-0.09272881193785
62	7952	26	-2.3907466342375
62	8879	27	-3.1281808718574
62	9783	28	-2.8354268089213
62	10781	29	-1.7157407758365
62	11827	30	-0.04989423599976
62	12966	31	0.48998071542243
62	14188	32	1.8375704940897
62	15574	33	1.7508214389905
62	17096	34	1.8598007776821
62	18688	35	1.9604941574717
62	20427	36	1.8863696305593
62	22007	37	0.39190019628733
62	23679	38	0.033724521244876
62	25374	39	0.028272179693449
62	27160	40	-0.075826623062603
63	1609	14	4.2367132862338
63	1875	15	5.1993979958097
63	2223	16	6.0686613482074
63	2600	17	7.3795432275019
63	2982	18	7.959640925036
63	3450	19	2.9515088257556
63	3923	20	1.9967467562747
63	4471	21	1.8226565594369
63	5045	22	2.070157421818
63	5650	23	2.3578367834345
63	6387	24	1.9761754945123
63	7172	25	1.7077353597656
63	7952	26	0.973
63	8879	27	0.973
63	9783	28	0.973
63	10781	29	0.973
63	11827	30	1.2466786546479
63	12966	31	1.8051386752837
63	14188	32	4.0652731624035
63	15574	33	4.7864297526537
63	17096	34	5.9514969844234
63	18688	35	7.2658997170697
63	20427	36	8.0898980264595
63	22007	37	3.3271401414909
63	23679	38	2.1372864324665
63	25374	39	2.1221381754102
63	27160	40	1.7673913841133
64	1609	14	3.9614284594792
64	1875	15	6.0421246541285
64	2223	16	8.1563277897115
64	2600	17	9.9844070365971
64	2982	18	11.78097066139
64	3450	19	13.631669574617
64	3923	20	13.876028566305
64	4471	21	13.789417648017
64	5045	22	13.809218963513
64	5650	23	13.805625893273
64	6387	24	13.760019001605
64	7172	25	13.837396367975
64	7952	26	13.801394846551
64	8879	27	13.838053904627
64	9783	28	13.77944732843
64	10781	29	13.808214969561
64	11827	30	13.807729544563
64	12966	31	13.852624561829
64	14188	32	13.884289325748
64	15574	33	13.818471917994
64	17096	34	13.863761043083
64	18688	35	13.885565712757
64	20427	36	13.839353997824
64	22007	37	13.840211339339
64	23679	38	13.793331399008
64	25374	39	13.815920975371
64	27160	40	13.792727144267
65	1875	15	211.66772971701
65	2223	16	211.66772971701
65	2600	17	208.63521828963
65	2982	18	203.67031930234
65	3450	19	196.72094311784
65	3923	20	187.78555106667
65	4471	21	176.90577470992
65	5045	22	164.11692589246
65	5650	23	150.28625676193
65	6387	24	136.47315327901
65	7172	25	122.63860029089
65	7952	26	108.80965154548
65	8879	27	94.978102683297
65	9783	28	81.162894451855
65	10781	29	67.340381132473
65	11827	30	54.96077395912
65	12966	31	45.812541681378
65	14188	32	39.560189330163
65	15574	33	35.51730802316
65	17096	34	31.374589783846
65	18688	35	32.131060316841
65	20427	36	36.532142233465
65	22007	37	42.905865510865
65	23679	38	51.138384141063
65	25374	39	61.348869516268
65	27160	40	73.454500295211
66	1875	15	623.4
66	2223	16	623.4
66	2600	17	623.4
66	2982	18	623.4
66	3450	19	623.4
66	3923	20	623.4
66	4471	21	623.4
66	5045	22	623.4
66	5650	23	623.4
66	6387	24	623.4
66	7172	25	623.4
66	7952	26	623.4
66	8879	27	623.4
66	9783	28	623.4
66	10781	29	623.4
66	11827	30	623.4
66	12966	31	623.4
66	14188	32	623.4
66	15574	33	623.4
66	17096	34	623.95027347744
66	18688	35	626.55404021123
66	20427	36	626.6
66	22007	37	626.6
66	23679	38	626.6
66	25374	39	626.6
66	27160	40	626.6
67	1875	15	2.0806961946492
67	2223	16	2.1142031355831
67	2600	17	1.8280792468856
67	2982	18	1.7965636247932
67	3450	19	1.8506989132264
67	3923	20	0.24435899168789
67	4471	21	-0.086610918287187
67	5045	22	0.019801315495279
67	5650	23	-0.0035930702392939
67	6387	24	-0.045606891668868
67	7172	25	0.077377366370056
67	7952	26	-0.03600152142346
67	8879	27	0.03665905807633
67	9783	28	-0.05860657619778
67	10781	29	0.028767641130834
67	11827	30	-0.00048542499775017
67	12966	31	0.044895017265807
67	14188	32	0.031664763919544
67	15574	33	-0.065817407753784
67	17096	34	0.045289125088603
67	18688	35	0.021804669674019
67	20427	36	-0.046211714933159
67	22007	37	0.00085734151536521
67	23679	38	-0.046879940330982
67	25374	39	0.022589576363098
67	27160	40	-0.023193831103855
68	1875	15	4.4516591750969
68	2223	16	5.7094227632276
68	2600	17	6.082396449129
68	2982	18	6.9301908190433
68	3450	19	8.0815698604368
68	3923	20	2.8433592377263
68	4471	21	1.729592064948
68	5045	22	2.0853211624292
68	5650	23	2.007104080286
68	6387	24	1.8632177000853
68	7172	25	2.2803124143717
68	7952	26	1.8988852976821
68	8879	27	2.1445969120866
68	9783	28	1.8217923134845
68	10781	29	2.1150528403258
68	11827	30	2.0176560681152
68	12966	31	2.1736982058656
68	14188	32	2.1329862070809
68	15574	33	1.8011691116743
68	17096	34	2.1762654305304
68	18688	35	2.1001296873302
68	20427	36	1.8683425270419
68	22007	37	2.025418257911
68	23679	38	1.861978906627
68	25374	39	2.0953147094962
68	27160	40	1.9406584712454
69	1875	15	3.8004325452788
69	2223	16	5.6865855672202
69	2600	17	7.6933532146426
69	2982	18	9.5346051246478
69	3450	19	11.397004273642
69	3923	20	13.146731825312
69	4471	21	13.788158436727
69	5045	22	13.805110031154
69	5650	23	13.775033153293
69	6387	24	13.872800261439
69	7172	25	13.876337689499
69	7952	26	13.837247450645
69	8879	27	13.798177418122
69	9783	28	13.851347735601
69	10781	29	13.827977067707
69	11827	30	13.874828251789
69	12966	31	13.852759596989
69	14188	32	13.809429628407
69	15574	33	13.813141363095
69	17096	34	13.805620952116
69	18688	35	13.802405665237
69	20427	36	13.858818462533
69	22007	37	13.868849484138
69	23679	38	13.865632182895
69	25374	39	13.815022398904
69	27160	40	13.861447606517
70	2223	16	611.63982373774
70	2600	17	611.63982373774
70	2982	18	608.39153346006
70	3450	19	603.25818555731
70	3923	20	596.03501578803
70	4471	21	586.74328977499
70	5045	22	575.44281379524
70	5650	23	562.25074123752
70	6387	24	548.4231651267
70	7172	25	534.59455793722
70	7952	26	520.79694281238
70	8879	27	506.97322835961
70	9783	28	493.16425767778
70	10781	29	479.3288137764
70	11827	30	465.49626163354
70	12966	31	453.54470427684
70	14188	32	444.79940768041
70	15574	33	438.92726076794
70	17096	34	435.40881616323
70	18688	35	433.57964476998
70	20427	36	432.77806168223
70	22007	37	430.92714490999
70	23679	38	427.18543443273
70	25374	39	423.80605558343
70	27160	40	423.4
71	2223	16	423.4
71	2600	17	423.4
71	2982	18	423.4
71	3450	19	423.4
71	3923	20	423.4
71	4471	21	423.4
71	5045	22	423.4
71	5650	23	423.4
71	6387	24	423.4
71	7172	25	423.4
71	7952	26	423.4
71	8879	27	423.4
71	9783	28	423.4
71	10781	29	423.4
71	11827	30	423.4
71	12966	31	423.4
71	14188	32	423.4
71	15574	33	423.4
71	17096	34	423.4
71	18688	35	423.4
71	20427	36	423.4
71	22007	37	423.58183644143
71	23679	38	424.64873934036
71	25374	39	429.35761091598
71	27160	40	437.43317522206
72	2223	16	1.8861530219414
72	2600	17	2.0067676474224
72	2982	18	1.8412519100052
72	3450	19	1.8623991489946
72	3923	20	1.7497275516693
72	4471	21	0.64142661141547
72	5045	22	0.016951594427228
72	5650	23	-0.030076877861285
72	6387	24	0.097767108145636
72	7172	25	0.0035374280600813
72	7952	26	-0.039090238853824
72	8879	27	-0.039070032523012
72	9783	28	0.053170317478942
72	10781	29	-0.023370667893905
72	11827	30	0.046851184081753
72	12966	31	-0.022068654799368
72	14188	32	-0.043329968582839
72	15574	33	0.0037117346888405
72	17096	34	-0.0075204109796321
72	18688	35	-0.0032152868784046
72	20427	36	0.056412797295488
72	22007	37	0.010031021605247
72	23679	38	-0.0032173012429855
72	25374	39	-0.05060978399124
72	27160	40	0.046425207613501
73	2223	16	3.9862190109624
73	2600	17	5.2439363762026
73	2982	18	5.8809233641537
73	3450	19	6.9119578193282
73	3923	20	7.497875880631
73	4471	21	4.1487207844093
73	5045	22	2.0754051413546
73	5650	23	1.9161219244682
73	6387	24	2.3527339413147
73	7172	25	2.038054006863
73	7952	26	1.8919011027783
73	8879	27	1.8883842942692
73	9783	28	2.2011792986786
73	10781	29	1.9434357847195
73	11827	30	2.1827333578661
73	12966	31	1.9501541345475
73	14188	32	1.8752379707187
73	15574	33	2.032174764072
73	17096	34	1.9940367152025
73	18688	35	2.0080381200963
73	20427	36	2.2128626623399
73	22007	37	2.0589911511589
73	23679	38	2.0143858840555
73	25374	39	1.8515074953641
73	27160	40	2.179800578646
74	2223	16	3.9627340304695
74	2600	17	5.8403875479807
74	2982	18	7.9334300778091
74	3450	19	9.8394223771088
74	3923	20	11.745290648351
74	4471	21	13.629416681904
74	5045	22	13.851180223408
74	5650	23	13.800613391744
74	6387	24	13.879562971592
74	7172	25	13.878695805331
74	7952	26	13.859323850719
74	8879	27	13.791271466673
74	9783	28	13.823394610421
74	10781	29	10.849668973054
74	11827	30	7.7115200006476
74	12966	31	5.045646680158
74	14188	32	4.1797262791525
74	15574	33	3.564096187395
74	17096	34	3.6079722307809
74	18688	35	5.325166172185
74	20427	36	7.271707487707
74	22007	37	9.1119772287318
74	23679	38	11.137842318134
74	25374	39	12.937292399157
74	27160	40	13.819498172021
75	2600	17	611.61734681937
75	2982	18	611.61734681937
75	3450	19	608.34547727598
75	3923	20	603.04459053166
75	4471	21	595.71134401908
75	5045	22	586.30561669239
75	5650	23	575.04365687014
75	6387	24	561.87765941857
75	7172	25	548.06768903087
75	7952	26	534.2527537677
75	8879	27	520.44461141758
75	9783	28	506.61720151997
75	10781	29	492.80051949987
75	11827	30	478.98538918967
75	12966	31	465.15517951265
75	14188	32	451.32892580577
75	15574	33	437.49850653181
75	17096	34	423.7018960497
75	18688	35	409.85821933798
75	20427	36	396.03195396368
75	22007	37	382.20361872542
75	23679	38	368.39373701888
75	25374	39	354.55332498923
75	27160	40	340.71072507133
76	2600	17	23.4
76	2982	18	23.4
76	3450	19	23.4
76	3923	20	23.4
76	4471	21	23.4
76	5045	22	23.4
76	5650	23	23.4
76	6387	24	23.4
76	7172	25	23.4
76	7952	26	23.4
76	8879	27	23.4
76	9783	28	23.4
76	10781	29	23.4
76	11827	30	23.4
76	12966	31	23.4
76	14188	32	23.4
76	15574	33	23.4
76	17096	34	23.4
76	18688	35	23.4
76	20427	36	23.4
76	22007	37	23.4
76	23679	38	23.4
76	25374	39	23.4
76	27160	40	23.4
77	2600	17	1.8776535175112
77	2982	18	2.0930425298284
77	3450	19	1.9059922992997
77	3923	20	1.9058682712424
77	4471	21	1.8841260335525
77	5045	22	0.22176354150456
77	5650	23	-0.050566831664183
77	6387	24	0.078949579847977
77	7172	25	-0.00086716626072381
77	7952	26	-0.019371954612433
77	8879	27	-0.068052384045441
77	9783	28	0.032123143747448
77	10781	29	-2.973725637367
77	11827	30	-3.1381489724062
77	12966	31	-2.6658733204896
77	14188	32	-0.86592040100554
77	15574	33	-0.61563009175742
77	17096	34	0.043876043385826
77	18688	35	1.7171939414041
77	20427	36	1.946541315522
77	22007	37	1.8402697410248
77	23679	38	2.0258650894021
77	25374	39	1.7994500810234
77	27160	40	0.88220577286325
78	2600	17	4.0530037172303
78	2982	18	5.5406422987242
78	3450	19	6.1923345494089
78	3923	20	7.2210523024523
78	4471	21	8.190138056945
78	5045	22	2.7639470110652
78	5650	23	1.8503696689927
78	6387	24	2.2906362341889
78	7172	25	2.0235632952683
78	7952	26	1.9597923892984
78	8879	27	1.7914234356531
78	9783	28	2.127871981737
78	10781	29	0.973
78	11827	30	0.973
78	12966	31	0.973
78	14188	32	0.973
78	15574	33	0.973
78	17096	34	1.3265384613011
78	18688	35	3.5846226353842
78	20427	36	4.9075855534436
78	22007	37	5.6606585920257
78	23679	38	7.2127938953157
78	25374	39	7.5446114072056
78	27160	40	4.9586469637856
79	2600	17	4.084423409418
79	2982	18	6.0575100778456
79	3450	19	8.1490644386101
79	3923	20	10.211018298382
79	4471	21	12.134413917006
79	5045	22	13.845242408582
79	5650	23	13.790009780854
79	6387	24	13.864879281602
79	7172	25	13.762265394949
79	7952	26	13.76228692611
79	8879	27	13.853642444275
79	9783	28	13.854557390364
79	10781	29	13.768330215527
79	11827	30	10.403617265405
79	12966	31	7.4320124148947
79	14188	32	4.6920824434938
79	15574	33	2.6998876934526
79	17096	34	1.2473088841024
79	18688	35	0.51805880690731
79	20427	36	2.8589048078285
79	22007	37	4.9114809123195
79	23679	38	6.9112450687775
79	25374	39	8.9509145027377
79	27160	40	10.887935712834
80	2982	18	623.4
80	3450	19	623.4
80	3923	20	623.4
80	4471	21	623.4
80	5045	22	623.4
80	5650	23	623.4
80	6387	24	623.4
80	7172	25	623.4
80	7952	26	623.4
80	8879	27	623.4
80	9783	28	623.4
80	10781	29	623.4
80	11827	30	623.4
80	12966	31	623.4
80	14188	32	623.4
80	15574	33	623.4
80	17096	34	623.4
80	18688	35	623.4
80	20427	36	623.4
80	22007	37	623.07680728143
80	23679	38	618.087733363
80	25374	39	610.77041525746
80	27160	40	601.48068165175
81	2982	18	638.36861228683
81	3450	19	638.36861228683
81	3923	20	641.44977368263
81	4471	21	646.44684104905
81	5045	22	653.54954683826
81	5650	23	662.44689408805
81	6387	24	673.27779385624
81	7172	25	686.09007514551
81	7952	26	699.8909926159
81	8879	27	713.7086702295
81	9783	28	727.53050853818
81	10781	29	741.38064200325
81	11827	30	755.19536215609
81	12966	31	769.02051261089
81	14188	32	782.84915026192
81	15574	33	795.17930672265
81	17096	34	804.30494597251
81	18688	35	810.48199041664
81	20427	36	814.52220488233
81	22007	37	820.06234903
81	23679	38	823.35889523386
81	25374	39	823.4
81	27160	40	823.4
82	2982	18	1.9730866684276
82	3450	19	2.0915543607646
82	3923	20	2.0619538597716
82	4471	21	1.9233956186241
82	5045	22	1.7108284915758
82	5650	23	-0.055232627727092
82	6387	24	0.074869500747882
82	7172	25	-0.10261388665298
82	7952	26	2.1531160456334e-005
82	8879	27	0.091355518165509
82	9783	28	0.00091494608903453
82	10781	29	-0.086227174837335
82	11827	30	-3.3647129501222
82	12966	31	-2.9716048505101
82	14188	32	-2.739929971401
82	15574	33	-1.9921947500412
82	17096	34	-1.4525788093502
82	18688	35	-0.72925007719507
82	20427	36	2.3408460009212
82	22007	37	2.052576104491
82	23679	38	1.999764156458
82	25374	39	2.0396694339602
82	27160	40	1.9370212100958
83	2982	18	4.3031775780322
83	3450	19	5.6607572575749
83	3923	20	6.7751010771682
83	4471	21	7.4851854216473
83	5045	22	7.7315957575792
83	5650	23	1.8339218456967
83	6387	24	2.275232078657
83	7172	25	1.6743438285585
83	7952	26	2.0147574994863
83	8879	27	2.3289314251835
83	9783	28	2.0270679773511
83	10781	29	1.7291787494463
83	11827	30	0.973
83	12966	31	0.973
83	14188	32	0.973
83	15574	33	0.973
83	17096	34	0.973
83	18688	35	0.973
83	20427	36	2.8629058345929
83	22007	37	3.7874410901201
83	23679	38	4.8047216701031
83	25374	39	6.007954962048
83	27160	40	6.8371996916612
84	2982	18	4.2870338742172
84	3450	19	6.1322051434165
84	3923	20	8.3026182675471
84	4471	21	10.156117901275
84	5045	22	12.093836721109
84	5650	23	13.884459929059
84	6387	24	13.871399804966
84	7172	25	13.76898598572
84	7952	26	13.870097403594
84	8879	27	13.866833875603
84	9783	28	13.830457274718
84	10781	29	13.789997874761
84	11827	30	13.888224797316
84	12966	31	13.827759557194
84	14188	32	13.840863058607
84	15574	33	13.761812375733
84	17096	34	13.807569060838
84	18688	35	13.85238555009
84	20427	36	13.782713315785
84	22007	37	13.811633200152
84	23679	38	13.837060120399
84	25374	39	13.833023439806
84	27160	40	13.798405416552
85	3450	19	411.64985526385
85	3923	20	411.64985526385
85	4471	21	408.57486380428
85	5045	22	403.56759653795
85	5650	23	396.53249924781
85	6387	24	387.61694215325
85	7172	25	376.82658445507
85	7952	26	364.03017112675
85	8879	27	350.20762387133
85	9783	28	336.35361196961
85	10781	29	322.53947539666
85	11827	30	308.71406474087
85	12966	31	294.90429046519
85	14188	32	281.08805248217
85	15574	33	267.2544203613
85	17096	34	253.41982034688
85	18688	35	240.64393414807
85	20427	36	232.11266930502
85	22007	37	226.9595514524
85	23679	38	226.6
85	25374	39	226.6
85	27160	40	226.6
86	3450	19	823.4
86	3923	20	823.4
86	4471	21	823.4
86	5045	22	823.4
86	5650	23	823.4
86	6387	24	823.4
86	7172	25	823.4
86	7952	26	823.4
86	8879	27	823.4
86	9783	28	823.4
86	10781	29	823.4
86	11827	30	823.4
86	12966	31	823.4
86	14188	32	823.4
86	15574	33	823.4
86	17096	34	823.4
86	18688	35	823.4
86	20427	36	823.38752418643
86	22007	37	820.26591908733
86	23679	38	813.32913881589
86	25374	39	804.34411979788
86	27160	40	793.50506868578
87	3450	19	1.8451712691993
87	3923	20	2.1704131241306
87	4471	21	1.8534996337281
87	5045	22	1.9377188198338
87	5650	23	1.7906232079498
87	6387	24	-0.013060124092735
87	7172	25	-0.10241381924599
87	7952	26	0.10111141787376
87	8879	27	-0.0032635279907858
87	9783	28	-0.036376600884832
87	10781	29	-0.040459399956744
87	11827	30	0.098226922554895
87	12966	31	-0.060465240122284
87	14188	32	0.013103501412552
87	15574	33	-0.079050682873932
87	17096	34	0.045756685105154
87	18688	35	0.044816489252261
87	20427	36	-0.06967223430518
87	22007	37	0.028919884366914
87	23679	38	0.025426920247265
87	25374	39	-0.004036680592689
87	27160	40	-0.034618023254444
88	3450	19	4.1540271589091
88	3923	20	5.9062362597305
88	4471	21	6.2333754593159
88	5045	22	7.5045152126853
88	5650	23	8.0187521693765
88	6387	24	1.9820624461207
88	7172	25	1.6755186526635
88	7952	26	2.3635747412339
88	8879	27	2.0143524695409
88	9783	28	1.9003223174155
88	10781	29	1.8830179922341
88	11827	30	2.356204080748
88	12966	31	1.8197976979609
88	14188	32	2.0663333089893
88	15574	33	1.7524590458484
88	17096	34	2.1715162278005
88	18688	35	2.173409219317
88	20427	36	1.7853195697528
88	22007	37	2.1159288583583
88	23679	38	2.1070312925884
88	25374	39	2.0083731617876
88	27160	40	1.9032099579496
89	3450	19	3.9475584061126
89	3923	20	5.9093451321902
89	4471	21	7.9692510731713
89	5045	22	9.735803144284
89	5650	23	11.687363385775
89	6387	24	13.626733031337
89	7172	25	13.776191328298
89	7952	26	13.804571656345
89	8879	27	13.851080735421
89	9783	28	13.884520370378
89	10781	29	13.813674139327
89	11827	30	13.808062894342
89	12966	31	13.819508547068
89	14188	32	10.837985447287
89	15574	33	7.7984959353961
89	17096	34	4.9855157367919
89	18688	35	4.209089171802
89	20427	36	6.502030911413
89	22007	37	6.3946641709236
89	23679	38	8.1518168881885
89	25374	39	10.315934282278
89	27160	40	12.436092168775
90	3923	20	638.35708656023
90	4471	21	638.35708656023
90	5045	22	641.55033373678
90	5650	23	646.74588081113
90	6387	24	653.85939036559
90	7172	25	663.07635795683
90	7952	26	674.31089485032
90	8879	27	687.51938225664
90	9783	28	701.35650235175
90	10781	29	715.16799449298
90	11827	30	729.00390381891
90	12966	31	742.83213013163
90	14188	32	756.64938356702
90	15574	33	770.48732811279
90	17096	34	784.29454093879
90	18688	35	798.12761579784
90	20427	36	811.29853493063
90	22007	37	820.49435523704
90	23679	38	825.88662414716
[...]
106	25374	39	623.4
106	27160	40	623.4
107	5650	23	1.9734590751049
107	6387	24	1.944059865647
107	7172	25	2.0425128097692
107	7952	26	2.039854479942
107	8879	27	1.6526962840722
107	9783	28	0.015298202761914
107	10781	29	0.03590198313119
107	11827	30	-0.081729773541447
107	12966	31	0.070948281222954
107	14188	32	-0.0062659476161926
107	15574	33	-0.085313895081637
107	17096	34	-0.0083951624273322
107	18688	35	-2.8298744713952
107	20427	36	-3.1284669941968
107	22007	37	-2.6709594848219
107	23679	38	1.2955445040272
107	25374	39	-0.04550936547108
107	27160	40	1.3139488025964
108	5650	23	4.356223153659
108	6387	24	5.3447597600143
108	7172	25	6.688184619887
108	7952	26	7.8535248449056
108	8879	27	7.53246790803
108	9783	28	2.0746367298129
108	10781	29	2.147366283486
108	11827	30	1.7470304786552
108	12966	31	2.2633704880918
108	14188	32	2.0045424973386
108	15574	33	1.7334475920272
108	17096	34	1.9881330577665
108	18688	35	0.973
108	20427	36	0.973
108	22007	37	0.973
108	23679	38	3.4566733658178
108	25374	39	1.372569158152
108	27160	40	3.9657477016572
109	5650	23	4.1344470101443
109	6387	24	5.9625223514612
109	7172	25	7.8985254083329
109	7952	26	9.8970040902437
109	8879	27	11.909343575461
109	9783	28	13.722905441216
109	10781	29	13.819194222502
109	11827	30	13.829307905487
109	12966	31	13.780101440079
109	14188	32	13.764324093198
109	15574	33	13.771128144695
109	17096	34	13.807773832888
109	18688	35	13.810023257027
109	20427	36	10.725868583874
109	22007	37	7.617588792248
109	23679	38	4.941112195945
109	25374	39	4.1622186226151
109	27160	40	6.473161153615
112	6387	24	1.8280753413169
112	7172	25	1.9360030568717
112	7952	26	1.9984786819108
112	8879	27	2.0123394852178
112	9783	28	1.8135618657549
112	10781	29	0.096288781286022
112	11827	30	0.010113682984375
112	12966	31	-0.049206465408206
112	14188	32	-0.015777346880641
112	15574	33	0.0068040514970207
112	17096	34	0.036645688193383
112	18688	35	0.0022494241385722
112	20427	36	-3.0841546731529
112	22007	37	-3.1082797916261
112	23679	38	-2.676476596303
112	25374	39	-0.77889357332985
112	27160	40	2.3109425309999
113	6387	24	4.0440998954845
113	7172	25	5.2218139662031
113	7952	26	6.4437126185169
113	8879	27	7.6162666138217
113	9783	28	8.0085735630568
113	10781	29	2.3411133598446
113	11827	30	2.0551617803036
113	12966	31	1.8530668602916
113	14188	32	1.9625546578625
113	15574	33	2.038158530566
113	17096	34	2.1412207606331
113	18688	35	2.0269898291553
113	20427	36	0.973
113	22007	37	0.973
113	23679	38	0.973
113	25374	39	0.973
113	27160	40	5.0524658072935
114	6387	24	4.0671056247296
114	7172	25	5.9422870130886
114	7952	26	7.9443556855622
114	8879	27	9.9154275620242
114	9783	28	12.049769734124
114	10781	29	13.783898148802
114	11827	30	13.862487124004
114	12966	31	13.820513837943
114	14188	32	13.820487937236
114	15574	33	13.784234382031
114	17096	34	13.823098680496
114	18688	35	13.808644097804
114	20427	36	13.854588545987
114	22007	37	10.652809132938
114	23679	38	7.6219145822943
114	25374	39	4.8327114785357
114	27160	40	2.7105466664563
115	7172	25	26.6
115	7952	26	26.6
115	8879	27	26.6
115	9783	28	26.6
115	10781	29	26.6
115	11827	30	26.6
115	12966	31	26.6
115	14188	32	26.6
115	15574	33	26.6
115	17096	34	26.6
115	18688	35	26.6
115	20427	36	26.6
115	22007	37	26.6
115	23679	38	26.6
115	25374	39	26.6
115	27160	40	26.6
116	7172	25	611.64558947949
116	7952	26	611.64558947949
116	8879	27	608.52350733819
116	9783	28	603.36817894682
116	10781	29	596.36329280719
116	11827	30	587.46892251302
116	12966	31	576.65195403056
116	14188	32	563.95352738586
116	15574	33	550.13003790403
116	17096	34	536.32454307245
116	18688	35	522.51403206242
116	20427	36	508.67831869572
116	22007	37	494.85389531808
116	23679	38	481.02931375246
116	25374	39	467.20955991954
116	27160	40	454.35838483371
117	7172	25	1.875181388359
117	7952	26	2.0020686724735
117	8879	27	1.9710718764621
117	9783	28	2.1343421720993
117	10781	29	1.7341284146786
117	11827	30	0.078588975202292
117	12966	31	-0.041973286061546
117	14188	32	-2.5900707115056e-005
117	15574	33	-0.036253555205185
117	17096	34	0.038864298465196
117	18688	35	-0.014454582692123
117	20427	36	0.04594444818329
117	22007	37	-3.2017794130489
117	23679	38	-3.0308945506436
117	25374	39	-2.7892031037586
117	27160	40	-2.1221648120794
118	7172	25	4.101470195244
118	7952	26	5.3726937041578
118	8879	27	6.3884839787279
118	9783	28	8.0510239816697
118	10781	29	7.7774996800993
118	11827	30	2.2873723381487
118	12966	31	1.8807619592109
118	14188	32	2.0204753340343
118	15574	33	1.8964643604913
118	17096	34	2.1502970027574
118	18688	35	1.971260679066
118	20427	36	2.1774226634987
118	22007	37	0.973
118	23679	38	0.973
118	25374	39	0.973
118	27160	40	0.973
120	7952	26	26.6
120	8879	27	26.6
120	9783	28	26.6
120	10781	29	26.6
120	11827	30	26.6
120	12966	31	26.6
120	14188	32	26.6
120	15574	33	26.6
120	17096	34	26.6
120	18688	35	26.6
120	20427	36	26.6
120	22007	37	26.6
120	23679	38	26.6
120	25374	39	26.6
120	27160	40	26.6
121	7952	26	211.62139425341
121	8879	27	211.62139425341
121	9783	28	208.42260688371
121	10781	29	203.42717713212
121	11827	30	196.51394843727
121	12966	31	187.60229898386
121	14188	32	176.96572304842
121	15574	33	164.40436706292
121	17096	34	150.58458048453
121	18688	35	136.78311885203
121	20427	36	122.99753880278
121	22007	37	109.16344882423
121	23679	38	95.329817190101
121	25374	39	81.506522559688
121	27160	40	67.681237373938
124	7952	26	4.121810317437
124	8879	27	6.0074048296099
124	9783	28	7.8266083369723
124	10781	29	9.7116799417294
124	11827	30	11.749823281387
124	12966	31	13.515555626582
124	14188	32	13.886800110687
124	15574	33	13.825176884099
124	17096	34	13.872095770033
124	18688	35	13.80030337068
124	20427	36	13.797753164023
124	22007	37	13.830056591842
124	23679	38	13.781515203749
124	25374	39	11.456811984374
124	27160	40	8.2934212236847
125	8879	27	226.6
125	9783	28	226.6
125	10781	29	226.6
125	11827	30	226.6
125	12966	31	226.6
125	14188	32	226.6
125	15574	33	226.6
125	17096	34	226.6
125	18688	35	226.6
125	20427	36	226.6
125	22007	37	226.6
125	23679	38	226.6
125	25374	39	226.6
125	27160	40	226.6
126	8879	27	411.58288457481
126	9783	28	411.58288457481
126	10781	29	408.22661881335
126	11827	30	402.78072252291
126	12966	31	395.28616344277
126	14188	32	385.92545347048
126	15574	33	374.77813688369
126	17096	34	361.7184782618
126	18688	35	347.90731452825
126	20427	36	334.09353148359
126	22007	37	320.25795219909
126	23679	38	306.44944569618
126	25374	39	292.63066710511
126	27160	40	278.80459444559
127	8879	27	1.885594512173
127	9783	28	1.8192035073624
127	10781	29	1.8850716047571
127	11827	30	2.0381433396577
127	12966	31	1.7657323451946
127	14188	32	0.37124448410535
127	15574	33	-0.061623226588127
127	17096	34	0.046918885933701
127	18688	35	-0.071792399352416
127	20427	36	-0.002550206657034
127	22007	37	0.032303427818697
127	23679	38	-0.048541388092563
127	25374	39	-2.3247032193754
127	27160	40	-3.1633907606892
128	8879	27	4.1497596442248
128	9783	28	4.9632489379395
128	10781	29	6.0751461948064
128	11827	30	7.5980905074274
128	12966	31	7.7414934316218
128	14188	32	3.2697384923046
128	15574	33	1.8157156557772
128	17096	34	2.1826512751227
128	18688	35	1.7797485834648
128	20427	36	2.0097833001745
128	22007	37	2.1291987939011
128	23679	38	1.8554016541845
128	25374	39	0.973
128	27160	40	0.973
129	8879	27	3.9760906288211
129	9783	28	5.774616378138
129	10781	29	7.7825928300942
129	11827	30	9.6956405529539
129	12966	31	11.462189770734
129	14188	32	13.45303034455
129	15574	33	13.887899353777
129	17096	34	13.774368863127
129	18688	35	13.765334989582
129	20427	36	13.855180885827
129	22007	37	13.889774081798
129	23679	38	13.817323750129
129	25374	39	13.77893546229
129	27160	40	13.834827502044
130	9783	28	426.6
130	10781	29	426.6
130	11827	30	426.6
130	12966	31	426.6
130	14188	32	426.6
130	15574	33	426.6
130	17096	34	426.6
130	18688	35	426.6
130	20427	36	426.6
130	22007	37	426.6
130	23679	38	426.6
130	25374	39	426.6
130	27160	40	426.6
131	9783	28	211.65766474442
131	10781	29	211.65766474442
131	11827	30	208.63847745275
131	12966	31	203.7876764741
131	14188	32	196.95358858843
131	15574	33	188.20185739025
131	17096	34	177.44513637977
131	18688	35	164.77754817398
131	20427	36	150.98414502808
131	22007	37	137.16444715028
131	23679	38	123.32461505711
131	25374	39	109.48203658987
131	27160	40	95.647023210649
132	9783	28	1.7985257493169
132	10781	29	2.0079764519562
132	11827	30	1.9130477228598
132	12966	31	1.7665492177801
132	14188	32	1.9908405738161
132	15574	33	0.43486900922646
132	17096	34	-0.11353049064986
132	18688	35	-0.0090338735445403
132	20427	36	0.089845896244514
132	22007	37	0.034593195971102
132	23679	38	-0.072450331668369
132	25374	39	-0.03838828783948
132	27160	40	0.055892039753962
133	9783	28	3.9093330038104
133	10781	29	5.2951484289868
133	11827	30	6.1320375475323
133	12966	31	6.681945412133
133	14188	32	8.4385608793847
133	15574	33	3.4828988728114
133	17096	34	1.6390252390569
133	18688	35	1.9850237679602
133	20427	36	2.3240805718144
133	22007	37	2.1433885212452
133	23679	38	1.7789837101426
133	25374	39	1.8888872611402
133	27160	40	2.2083680635539
134	9783	28	4.2827240551382
134	10781	29	6.3617759214158
134	11827	30	8.3296261910445
134	12966	31	10.170823070496
134	14188	32	12.016880206515
134	15574	33	13.782038496931
134	17096	34	13.776520200262
134	18688	35	13.851843407371
134	20427	36	13.868973644497
134	22007	37	13.770534328111
134	23679	38	13.812270264479
134	25374	39	13.861207530557
134	27160	40	13.822154074416
135	10781	29	238.34780656187
135	11827	30	238.34780656187
135	12966	31	241.33642415611
135	14188	32	246.27539142698
135	15574	33	253.36332050108
135	17096	34	262.36691383883
135	18688	35	273.28432682357
135	20427	36	286.17486168523
135	22007	37	300.00209249989
135	23679	38	313.82856342241
135	25374	39	327.64819938958
135	27160	40	341.4847032978
136	10781	29	626.6
136	11827	30	626.6
136	12966	31	626.6
136	14188	32	626.6
136	15574	33	626.6
136	17096	34	626.6
136	18688	35	626.6
136	20427	36	626.6
136	22007	37	626.6
136	23679	38	626.6
136	25374	39	626.6
136	27160	40	626.6
137	10781	29	2.0790518662776
137	11827	30	1.9678502696287
137	12966	31	1.8411968794512
137	14188	32	1.8460571360192
137	15574	33	1.7651582904157
137	17096	34	-0.0055182966683045
137	18688	35	0.075323207108303
137	20427	36	0.017130237126258
137	22007	37	-0.098439316386358
137	23679	38	0.041735936368351
137	25374	39	0.048937266077846
137	27160	40	-0.039053456140683
138	10781	29	4.6282546912645
138	11827	30	5.5155510251872
138	12966	31	6.21091838392
138	14188	32	7.196306841034
138	15574	33	7.8795997101872
138	17096	34	1.9977990500132
138	18688	35	2.2751887822641
138	20427	36	2.0827326380839
138	22007	37	1.6888266672124
138	23679	38	2.1586592361929
138	25374	39	2.1881651871766
138	27160	40	1.8906376881175
139	10781	29	3.8640796656667
139	11827	30	5.7257185414799
139	12966	31	7.7256375268468
139	14188	32	9.6717165333934
139	15574	33	11.572328323514
139	17096	34	13.562409460514
139	18688	35	13.776213349951
139	20427	36	13.776731369148
139	22007	37	13.803562320124
139	23679	38	13.889380110847
139	25374	39	13.862289659826
139	27160	40	13.777199743404
140	11827	30	411.63995262118
140	12966	31	411.63995262118
140	14188	32	408.44926415042
140	15574	33	403.40817332425
140	17096	34	396.39635372348
140	18688	35	387.4746817591
140	20427	36	376.71406867895
140	22007	37	363.89447434773
140	23679	38	350.04484648832
140	25374	39	336.21425541769
140	27160	40	322.37503728528
141	11827	30	423.4
141	12966	31	423.4
141	14188	32	423.4
141	15574	33	423.4
141	17096	34	423.4
141	18688	35	423.4
141	20427	36	423.4
141	22007	37	423.4
141	23679	38	423.4
141	25374	39	423.4
141	27160	40	423.4
142	11827	30	1.8616388758132
142	12966	31	1.9999189853668
142	14188	32	1.9460790065466
142	15574	33	1.9006117901206
142	17096	34	1.9900811369997
142	18688	35	0.21380388943778
142	20427	36	0.00051801919704353
142	22007	37	0.026830950975418
142	23679	38	0.08581779072294
142	25374	39	-0.027090451021213
142	27160	40	-0.085089916421566
143	11827	30	3.9724212800464
143	12966	31	5.2488878754729
143	14188	32	6.19622375505
143	15574	33	7.1120888636255
143	17096	34	8.499365253336
143	18688	35	2.7259329601338
143	20427	36	2.0178617925076
143	22007	37	2.1081076662002
143	23679	38	2.3148113338673
143	25374	39	1.934293481335
143	27160	40	1.7336646142096
144	11827	30	3.8256240094134
144	12966	31	5.8873005635438
144	14188	32	8.045997861685
144	15574	33	9.8601013565117
144	17096	34	11.783400172494
144	18688	35	13.807023619838
144	20427	36	13.821931133948
144	22007	37	13.842724142154
144	23679	38	13.782130414289
144	25374	39	13.802123199662
144	27160	40	13.808347703598
145	12966	31	438.36008396157
145	14188	32	438.36008396157
145	15574	33	441.551075394
145	17096	34	446.6305910324
145	18688	35	453.53519437213
145	20427	36	462.21602982625
145	22007	37	472.78717329996
145	23679	38	485.34605395858
145	25374	39	499.13845762246
145	27160	40	512.98147919676
146	12966	31	226.6
146	14188	32	226.6
146	15574	33	226.6
146	17096	34	226.6
146	18688	35	226.6
146	20427	36	226.6
146	22007	37	226.6
146	23679	38	226.6
146	25374	39	226.6
146	27160	40	226.6
147	12966	31	2.0616765541304
147	14188	32	2.1586972981412
147	15574	33	1.8141034948267
147	17096	34	1.9232988159824
147	18688	35	2.0236234473437
147	20427	36	0.014907514109998
147	22007	37	0.020793008205947
147	23679	38	-0.060593727864326
147	25374	39	0.019992785372306
147	27160	40	0.0062245039362452
148	12966	31	4.3380418105188
148	14188	32	5.732156072286
148	15574	33	5.9850329362366
148	17096	34	7.2913559220457
148	18688	35	8.7527922811233
148	20427	36	2.0703658281592
148	22007	37	2.0921807216306
148	23679	38	1.8154247515908
148	25374	39	2.0852070820576
148	27160	40	2.0400478596076
149	12966	31	4.0267832063152
149	14188	32	5.922046721721
149	15574	33	7.9021488448059
149	17096	34	9.8131509243617
149	18688	35	11.577703838103
149	20427	36	13.705250132604
149	22007	37	13.882044331571
149	23679	38	13.845786112645
149	25374	39	13.883888857865
149	27160	40	13.798551775722
150	14188	32	623.4
150	15574	33	623.4
150	17096	34	623.4
150	18688	35	623.4
150	20427	36	623.4
150	22007	37	623.4
150	23679	38	623.4
150	25374	39	623.4
150	27160	40	623.4
151	14188	32	438.34951609813
151	15574	33	438.34951609813
151	17096	34	441.4051837113
151	18688	35	446.35108825951
151	20427	36	453.15456980536
151	22007	37	461.91223868204
151	23679	38	472.68968157333
151	25374	39	485.4367665256
151	27160	40	499.26378918887
152	14188	32	1.8952635154058
152	15574	33	1.9801021230849
152	17096	34	1.9110020795558
152	18688	35	1.7645529137412
152	20427	36	2.1275462945015
152	22007	37	0.17679419896665
152	23679	38	-0.036258218926378
152	25374	39	0.038102745220531
152	27160	40	-0.085337082142942
153	14188	32	4.1198109193674
153	15574	33	5.3077250984225
153	17096	34	6.1901445504619
153	18688	35	6.7353749181832
153	20427	36	9.0361647175062
153	22007	37	2.6182819315509
153	23679	38	1.9021359172201
153	25374	39	2.1544840344995
153	27160	40	1.7345597760951
154	14188	32	4.0853260210276
154	15574	33	5.8561162086161
154	17096	34	7.7352718813302
154	18688	35	9.4627620971788
154	20427	36	11.482386087678
154	22007	37	13.385562997188
154	23679	38	13.855860151714
154	25374	39	13.850662465394
154	27160	40	13.839152357995
155	15574	33	238.35244132223
155	17096	34	238.35244132223
155	18688	35	241.53041717737
155	20427	36	246.60529784874
155	22007	37	253.56410868115
155	23679	38	262.38840742274
155	25374	39	273.10397908897
155	27160	40	285.87857822327
156	15574	33	826.6
156	17096	34	826.6
156	18688	35	826.6
156	20427	36	826.6
156	22007	37	826.6
156	23679	38	826.6
156	25374	39	826.6
156	27160	40	826.6
157	15574	33	1.7707901875884
157	17096	34	1.8791556727141
157	18688	35	1.7274902158487
157	20427	36	2.0196239904989
157	22007	37	1.9031769095105
157	23679	38	0.47029715452541
157	25374	39	-0.0051976863201713
157	27160	40	-0.011510107398498
158	15574	33	3.9102102182969
158	17096	34	5.0290287378167
158	18688	35	5.5843450269913
158	20427	36	7.3925771301389
158	22007	37	8.1167728563281
158	23679	38	3.5945907293837
158	25374	39	2.0062680650173
158	27160	40	1.9840623837804
159	15574	33	3.9225065514804
159	17096	34	5.8888099768324
159	18688	35	7.6334120348338
159	20427	36	9.7535238534896
159	22007	37	11.689805939552
159	23679	38	13.592412714421
159	25374	39	13.763476781372
159	27160	40	13.80928850814
160	17096	34	826.6
160	18688	35	826.6
160	20427	36	826.6
160	22007	37	826.6
160	23679	38	826.6
160	25374	39	826.6
160	27160	40	826.6
161	17096	34	611.59221256564
161	18688	35	611.59221256564
161	20427	36	608.38653714162
161	22007	37	603.30381073437
161	23679	38	596.19427132159
161	25374	39	587.27112528357
161	27160	40	576.33820514967
162	17096	34	1.9663034253521
162	18688	35	1.7446020580013
162	20427	36	2.1201118186559
162	22007	37	1.9362820860627
162	23679	38	1.9026067748689
162	25374	39	0.1710640669512
162	27160	40	0.045811726767571
163	17096	34	4.2035252504377
163	18688	35	4.7287862920561
163	20427	36	6.6497583402868
163	22007	37	7.2764626571566
163	23679	38	8.2301892767729
163	25374	39	2.5822250977442
163	27160	40	2.1718921753881
164	17096	34	4.0824178071691
164	18688	35	5.9876658055511
164	20427	36	7.8333593676354
164	22007	37	9.688695321523
164	23679	38	11.643175232697
164	25374	39	13.582441008768
164	27160	40	13.883236124318
165	18688	35	438.37451770283
165	20427	36	438.37451770283
165	22007	37	441.50703139981
165	23679	38	446.69149507186
165	25374	39	453.85989132219
165	27160	40	462.8975038685
166	18688	35	26.6
166	20427	36	26.6
166	22007	37	26.6
166	23679	38	26.6
166	25374	39	26.6
166	27160	40	26.6
167	18688	35	1.905247998382
167	20427	36	1.8456935620843
167	22007	37	1.8553359538875
167	23679	38	1.9544799111737
167	25374	39	1.9392657760717
167	27160	40	0.30079511554926
168	18688	35	4.1680012102082
168	20427	36	5.0166581292557
168	22007	37	5.9935640679693
168	23679	38	7.3017575218749
168	25374	39	8.344624148002
168	27160	40	3.0333435538453
169	18688	35	4.0696022958814
169	20427	36	6.011145804405
169	22007	37	7.8568901121563
169	23679	38	9.7910289012588
169	25374	39	11.765686676022
169	27160	40	13.869774090406
170	20427	36	811.65358453833
170	22007	37	811.65358453833
170	23679	38	808.63117812924
170	25374	39	803.63426444555
170	27160	40	796.77812934137
171	20427	36	623.4
171	22007	37	623.4
171	23679	38	623.4
171	25374	39	623.4
171	27160	40	623.4
172	20427	36	1.9415435085236
172	22007	37	1.8457443077513
172	23679	38	1.9341387891024
172	25374	39	1.9746577747632
172	27160	40	2.1040874143836
173	20427	36	4.2327300879659
173	22007	37	5.0287574567476
173	23679	38	6.2328942556896
173	25374	39	7.4272402534718
173	27160	40	9.0587127527792
174	20427	36	4.0503513397236
174	22007	37	6.1334240828623
174	23679	38	8.0099598503491
174	25374	39	10.01288164029
174	27160	40	11.865801862693
175	22007	37	823.4
175	23679	38	823.4
175	25374	39	823.4
175	27160	40	823.4
176	22007	37	638.36297545614
176	23679	38	638.36297545614
176	25374	39	641.42248235888
176	27160	40	646.34345634979
177	22007	37	2.0830727431388
177	23679	38	1.8765357674868
177	25374	39	2.0029217899404
177	27160	40	1.8529202224035
178	22007	37	4.5062960135431
178	23679	38	5.1663405785206
178	25374	39	6.5190172828478
178	27160	40	7.135459717908
179	22007	37	3.8275556167678
179	23679	38	5.8709232167036
179	25374	39	7.6783050359248
179	27160	40	9.6983812105164
180	23679	38	623.4
180	25374	39	623.4
180	27160	40	623.4
181	23679	38	38.352020018664
181	25374	39	38.352020018664
181	27160	40	41.444330784756
182	23679	38	2.0433675999357
182	25374	39	1.8073818192212
182	27160	40	2.0200761745917
183	23679	38	4.3030523728454
183	25374	39	4.8667285370615
183	27160	40	6.3836633995054
184	23679	38	3.9311891910371
184	25374	39	5.772591669793
184	27160	40	7.5189216745884
185	25374	39	38.374072952422
185	27160	40	38.374072952422
186	25374	39	426.6
186	27160	40	426.6
187	25374	39	1.8414024787559
187	27160	40	1.7463300047955
188	25374	39	3.9679889022179
188	27160	40	4.6764357994497
189	25374	39	3.9493632784271
189	27160	40	6.0126749007421
190	27160	40	638.34475076446
191	27160	40	826.6
192	27160	40	2.0633116223151
193	27160	40	4.4099833020164
194	27160	40	4.2251892715629

