version 2
run Default-0-20200722-14:19:35-268
attr configname Default
attr datetime 20200722-14:19:35
attr experiment Default
attr inifile omnetpp.ini
attr iterationvars ""
attr iterationvarsf ""
attr measurement ""
attr network sim1.src.TestScenario
attr processid 268
attr repetition 0
attr replication #0
attr resultdir results
attr runnumber 0
attr seedset 0
param *.playgroundSizeX 1000m
param *.playgroundSizeY 1000m
param *.playgroundSizeZ 50m
param *.manager.moduleType "\"exploited=org.car2x.veins.nodes.Car *=org.car2x.veins.nodes.Car\""
param *.manager.moduleName "\"exploited=exploited *=uninfected\""
param *.manager.updateInterval 1s
param *.manager.host "\"localhost\""
param *.manager.port 9999
param *.manager.autoShutdown true
param *.manager.launchConfig "xmldoc(\"demo.launchd.xml\")"
param *.connectionManager.sendDirect true
param *.connectionManager.maxInterfDist 300m
param *.connectionManager.drawMaxIntfDist false
param *.**.nic.mac1609_4.useServiceChannel false
param *.**.nic.mac1609_4.txPower 20mW
param *.**.nic.mac1609_4.bitrate 6Mbps
param *.**.nic.phy80211p.sensitivity -89dBm
param *.**.nic.phy80211p.useThermalNoise true
param *.**.nic.phy80211p.thermalNoise -110dBm
param *.**.nic.phy80211p.decider "xmldoc(\"config.xml\")"
param *.**.nic.phy80211p.analogueModels "xmldoc(\"config.xml\")"
param *.**.nic.phy80211p.usePropagationDelay true
param *.**.nic.phy80211p.antenna "xmldoc(\"antenna.xml\", \"/root/Antenna[@id='monopole']\")"
param *.uninfected[*].applType "\"sim1.src.Uninfected\""
param *.uninfected[*].appl.dataPriority 2
param *.uninfected[*].appl.headerLength "80 bit"
param *.uninfected[*].appl.sendBeacons false
param *.uninfected[*].appl.dataOnSch false
param *.uninfected[*].appl.beaconInterval 1s
param *.uninfected[*].veinsmobilityType.debug true
param *.uninfected[*].veinsmobility.x 0
param *.uninfected[*].veinsmobility.y 0
param *.uninfected[*].veinsmobility.z 1.895
param *.uninfected[*0].veinsmobility.accidentCount 1
param *.uninfected[*0].veinsmobility.accidentStart 75s
param *.uninfected[*0].veinsmobility.accidentDuration 50s
param *.exploited[*].applType "\"sim1.src.Exploited\""
param *.exploited[*].appl.dataPriority 2
param *.exploited[*].appl.headerLength "80 bit"
param *.exploited[*].appl.sendBeacons false
param *.exploited[*].appl.dataOnSch false
param *.exploited[*].appl.beaconInterval 1s
param *.exploited[*].veinsmobilityType.debug true
param *.exploited[*].veinsmobility.x 0
param *.exploited[*].veinsmobility.y 0
param *.exploited[*].veinsmobility.z 1.895
param *.exploited[*0].veinsmobility.accidentCount 1
param *.exploited[*0].veinsmobility.accidentStart 75s
param *.exploited[*0].veinsmobility.accidentDuration 50s

vector 0 TestScenario.uninfected[0].veinsmobility posx ETV
vector 1 TestScenario.uninfected[0].veinsmobility posy ETV
vector 2 TestScenario.uninfected[1].veinsmobility posx ETV
vector 3 TestScenario.uninfected[1].veinsmobility posy ETV
vector 4 TestScenario.uninfected[0].veinsmobility speed ETV
vector 5 TestScenario.uninfected[2].veinsmobility posx ETV
vector 6 TestScenario.uninfected[2].veinsmobility posy ETV
vector 7 TestScenario.uninfected[0].veinsmobility acceleration ETV
vector 8 TestScenario.uninfected[0].veinsmobility co2emission ETV
vector 9 TestScenario.uninfected[1].veinsmobility speed ETV
vector 10 TestScenario.uninfected[3].veinsmobility posx ETV
vector 11 TestScenario.uninfected[3].veinsmobility posy ETV
vector 12 TestScenario.uninfected[1].veinsmobility acceleration ETV
vector 13 TestScenario.uninfected[1].veinsmobility co2emission ETV
vector 14 TestScenario.uninfected[2].veinsmobility speed ETV
vector 15 TestScenario.uninfected[4].veinsmobility posx ETV
vector 16 TestScenario.uninfected[4].veinsmobility posy ETV
vector 17 TestScenario.uninfected[2].veinsmobility acceleration ETV
vector 18 TestScenario.uninfected[2].veinsmobility co2emission ETV
vector 19 TestScenario.uninfected[3].veinsmobility speed ETV
vector 20 TestScenario.uninfected[5].veinsmobility posx ETV
vector 21 TestScenario.uninfected[5].veinsmobility posy ETV
vector 22 TestScenario.uninfected[3].veinsmobility acceleration ETV
vector 23 TestScenario.uninfected[3].veinsmobility co2emission ETV
vector 24 TestScenario.uninfected[4].veinsmobility speed ETV
vector 25 TestScenario.uninfected[6].veinsmobility posx ETV
vector 26 TestScenario.uninfected[6].veinsmobility posy ETV
vector 27 TestScenario.uninfected[4].veinsmobility acceleration ETV
vector 28 TestScenario.uninfected[4].veinsmobility co2emission ETV
vector 29 TestScenario.uninfected[5].veinsmobility speed ETV
vector 30 TestScenario.uninfected[7].veinsmobility posx ETV
vector 31 TestScenario.uninfected[7].veinsmobility posy ETV
vector 32 TestScenario.uninfected[5].veinsmobility acceleration ETV
vector 33 TestScenario.uninfected[5].veinsmobility co2emission ETV
vector 34 TestScenario.uninfected[6].veinsmobility speed ETV
vector 35 TestScenario.uninfected[8].veinsmobility posx ETV
vector 36 TestScenario.uninfected[8].veinsmobility posy ETV
vector 37 TestScenario.uninfected[6].veinsmobility acceleration ETV
vector 38 TestScenario.uninfected[6].veinsmobility co2emission ETV
vector 39 TestScenario.uninfected[7].veinsmobility speed ETV
vector 40 TestScenario.uninfected[9].veinsmobility posx ETV
vector 41 TestScenario.uninfected[9].veinsmobility posy ETV
vector 42 TestScenario.uninfected[7].veinsmobility acceleration ETV
vector 43 TestScenario.uninfected[7].veinsmobility co2emission ETV
vector 44 TestScenario.uninfected[8].veinsmobility speed ETV
vector 45 TestScenario.uninfected[10].veinsmobility posx ETV
vector 46 TestScenario.uninfected[10].veinsmobility posy ETV
vector 47 TestScenario.uninfected[8].veinsmobility acceleration ETV
vector 48 TestScenario.uninfected[8].veinsmobility co2emission ETV
vector 49 TestScenario.uninfected[9].veinsmobility speed ETV
vector 50 TestScenario.uninfected[11].veinsmobility posx ETV
vector 51 TestScenario.uninfected[11].veinsmobility posy ETV
vector 52 TestScenario.uninfected[9].veinsmobility acceleration ETV
vector 53 TestScenario.uninfected[9].veinsmobility co2emission ETV
vector 54 TestScenario.uninfected[10].veinsmobility speed ETV
vector 55 TestScenario.uninfected[12].veinsmobility posx ETV
vector 56 TestScenario.uninfected[12].veinsmobility posy ETV
vector 57 TestScenario.uninfected[10].veinsmobility acceleration ETV
vector 58 TestScenario.uninfected[10].veinsmobility co2emission ETV
vector 59 TestScenario.uninfected[11].veinsmobility speed ETV
vector 60 TestScenario.uninfected[13].veinsmobility posx ETV
vector 61 TestScenario.uninfected[13].veinsmobility posy ETV
vector 62 TestScenario.uninfected[11].veinsmobility acceleration ETV
vector 63 TestScenario.uninfected[11].veinsmobility co2emission ETV
vector 64 TestScenario.uninfected[12].veinsmobility speed ETV
vector 65 TestScenario.uninfected[14].veinsmobility posx ETV
vector 66 TestScenario.uninfected[14].veinsmobility posy ETV
vector 67 TestScenario.uninfected[12].veinsmobility acceleration ETV
vector 68 TestScenario.uninfected[12].veinsmobility co2emission ETV
vector 69 TestScenario.uninfected[13].veinsmobility speed ETV
vector 70 TestScenario.uninfected[15].veinsmobility posx ETV
vector 71 TestScenario.uninfected[15].veinsmobility posy ETV
vector 72 TestScenario.uninfected[13].veinsmobility acceleration ETV
vector 73 TestScenario.uninfected[13].veinsmobility co2emission ETV
vector 74 TestScenario.uninfected[14].veinsmobility speed ETV
8	4	3	4.0322527122872
8	5	4	5.2975898300737
8	6	5	6.2393095735349
8	7	6	8.1168280262473
8	8	7	8.4055474696849
8	9	8	2.3038658754484
8	10	9	1.9713149755574
8	11	10	1.8163442131359
8	12	11	2.0431495384622
8	13	12	2.1380878866565
8	14	13	1.8140458596149
8	15	14	2.2730687791507
8	16	15	2.0682301560311
8	37	16	1.9544832606483
7	4	3	1.9318974897382
7	5	4	2.0363803824014
7	6	5	1.9676209085644
7	7	6	2.1980462150532
7	8	7	1.9237625535764
7	9	8	0.083470799195652
7	10	9	-0.015602680516896
7	11	10	-0.060467649514321
7	12	11	0.0075541240349413
7	13	12	0.034957707063295
7	14	13	-0.060687651869376
7	15	14	0.074943820482586
7	16	15	0.013140040771104
7	37	16	-0.020331218841019
4	3	2	3.722822103166
4	4	3	5.6547195929041
4	5	4	7.6910999753055
4	6	5	9.65872088387
4	7	6	11.856767098923
4	8	7	13.7805296525
4	9	8	13.864000451695
4	10	9	13.848397771178
4	11	10	13.787930121664
4	12	11	13.795484245699
4	13	12	13.830441952762
4	14	13	13.769754300893
4	15	14	13.844698121375
4	16	15	13.857838162147
4	37	16	13.837506943305
1	2	1	26.6
1	3	2	26.6
1	4	3	26.6
1	5	4	26.6
1	6	5	26.6
1	7	6	26.6
1	8	7	26.6
1	9	8	26.6
1	10	9	26.6
1	11	10	26.6
1	12	11	26.6
1	13	12	26.6
1	14	13	26.6
1	15	14	26.6
1	16	15	26.6
1	37	16	26.6
0	2	1	238.33130028169
0	3	2	238.33130028169
0	4	3	241.29043300185
0	5	4	246.13581405062
0	6	5	252.95160311503
0	7	6	261.74815797592
0	8	7	272.64644069597
0	9	8	285.48956514724
0	10	9	299.30126151605
0	11	10	313.14492636243
0	12	11	326.97829308077
0	13	12	340.769842025
0	14	13	354.60005657968
0	15	14	368.42574301749
0	16	15	382.26350665311
0	37	16	396.09961021668
vector 75 TestScenario.uninfected[16].veinsmobility posx ETV
vector 76 TestScenario.uninfected[16].veinsmobility posy ETV
vector 77 TestScenario.uninfected[14].veinsmobility acceleration ETV
vector 78 TestScenario.uninfected[14].veinsmobility co2emission ETV
vector 79 TestScenario.uninfected[15].veinsmobility speed ETV
vector 80 TestScenario.exploited[17].veinsmobility posx ETV
vector 81 TestScenario.exploited[17].veinsmobility posy ETV
vector 82 TestScenario.uninfected[15].veinsmobility acceleration ETV
vector 83 TestScenario.uninfected[15].veinsmobility co2emission ETV
vector 84 TestScenario.uninfected[16].veinsmobility speed ETV
18	6	5	4.0931528521982
18	7	6	5.7190741242088
18	8	7	6.1749091097848
18	9	8	7.0927377317887
18	10	9	8.0164398552752
18	11	10	2.8535438728518
18	12	11	2.0289928328033
18	13	12	1.8810522803744
18	14	13	2.2640623022785
18	15	14	1.7179053222839
18	16	15	2.3318076288463
18	37	16	1.8661754768186
18	78	17	1.8798970224183
18	173	18	2.2886268299481
17	6	5	1.8934586951672
17	7	6	2.1563206688361
17	8	7	1.88209418691
17	9	8	1.8559557857434
17	10	9	1.8352935877116
17	11	10	0.24849788005181
17	12	11	0.0014822860877022
17	13	12	-0.041685313740745
17	14	13	0.070846990777644
17	15	14	-0.090231728134675
17	16	15	0.091062660592142
17	37	16	-0.046825560478029
17	78	17	-0.04157504157396
17	173	18	0.078514577073511
14	5	4	3.9817542820289
14	6	5	5.8752129771961
14	7	6	8.0315336460323
14	8	7	9.9136278329422
14	9	8	11.769583618686
14	10	9	13.604877206397
14	11	10	13.853375086449
14	12	11	13.854857372537
14	13	12	13.813172058796
14	14	13	13.884019049574
14	15	14	13.793787321439
14	16	15	13.884849982031
14	37	16	13.838024421553
14	78	17	13.796449379979
14	173	18	13.874963957053
6	4	3	826.6
6	5	4	826.6
6	6	5	826.6
6	7	6	826.6
6	8	7	826.6
6	9	8	826.6
6	10	9	826.6
6	11	10	826.6
6	12	11	826.6
6	13	12	826.6
6	14	13	826.6
6	15	14	826.6
6	16	15	826.6
6	37	16	826.6
6	78	17	826.6
6	173	18	826.6
5	4	3	438.34775942317
5	5	4	438.34775942317
5	6	5	441.4088176292
5	7	6	446.45434897665
5	8	7	453.53617424597
5	9	8	462.57975371523
5	10	9	473.44364339012
5	11	10	486.20180991347
5	12	11	500.03542001702
5	13	12	513.85840024455
5	14	13	527.67166847357
5	15	14	541.50101008848
5	16	15	555.3072618635
5	37	16	569.13437337156
5	78	17	582.96147125182
5	173	18	596.79834308495
vector 85 TestScenario.uninfected[18].veinsmobility posx ETV
vector 86 TestScenario.uninfected[18].veinsmobility posy ETV
vector 87 TestScenario.uninfected[16].veinsmobility acceleration ETV
vector 88 TestScenario.uninfected[16].veinsmobility co2emission ETV
vector 89 TestScenario.exploited[17].veinsmobility speed ETV
vector 90 TestScenario.uninfected[19].veinsmobility posx ETV
vector 91 TestScenario.uninfected[19].veinsmobility posy ETV
vector 92 TestScenario.exploited[17].veinsmobility acceleration ETV
vector 93 TestScenario.exploited[17].veinsmobility co2emission ETV
vector 94 TestScenario.uninfected[18].veinsmobility speed ETV
vector 95 TestScenario.uninfected[20].veinsmobility posx ETV
vector 96 TestScenario.uninfected[20].veinsmobility posy ETV
vector 97 TestScenario.uninfected[18].veinsmobility acceleration ETV
vector 98 TestScenario.uninfected[18].veinsmobility co2emission ETV
vector 99 TestScenario.uninfected[19].veinsmobility speed ETV
vector 100 TestScenario.uninfected[21].veinsmobility posx ETV
vector 101 TestScenario.uninfected[21].veinsmobility posy ETV
vector 102 TestScenario.uninfected[19].veinsmobility acceleration ETV
vector 103 TestScenario.uninfected[19].veinsmobility co2emission ETV
vector 104 TestScenario.uninfected[20].veinsmobility speed ETV
vector 105 TestScenario.uninfected[22].veinsmobility posx ETV
vector 106 TestScenario.uninfected[22].veinsmobility posy ETV
vector 107 TestScenario.uninfected[20].veinsmobility acceleration ETV
vector 108 TestScenario.uninfected[20].veinsmobility co2emission ETV
vector 109 TestScenario.uninfected[21].veinsmobility speed ETV
vector 110 TestScenario.uninfected[23].veinsmobility posx ETV
vector 111 TestScenario.uninfected[23].veinsmobility posy ETV
vector 112 TestScenario.uninfected[21].veinsmobility acceleration ETV
vector 113 TestScenario.uninfected[21].veinsmobility co2emission ETV
vector 114 TestScenario.uninfected[22].veinsmobility speed ETV
vector 115 TestScenario.uninfected[24].veinsmobility posx ETV
vector 116 TestScenario.uninfected[24].veinsmobility posy ETV
vector 117 TestScenario.uninfected[22].veinsmobility acceleration ETV
vector 118 TestScenario.uninfected[22].veinsmobility co2emission ETV
vector 119 TestScenario.uninfected[23].veinsmobility speed ETV
vector 120 TestScenario.uninfected[25].veinsmobility posx ETV
vector 121 TestScenario.uninfected[25].veinsmobility posy ETV
vector 122 TestScenario.uninfected[23].veinsmobility acceleration ETV
vector 123 TestScenario.uninfected[23].veinsmobility co2emission ETV
vector 124 TestScenario.uninfected[24].veinsmobility speed ETV
vector 125 TestScenario.uninfected[26].veinsmobility posx ETV
vector 126 TestScenario.uninfected[26].veinsmobility posy ETV
vector 127 TestScenario.uninfected[24].veinsmobility acceleration ETV
vector 128 TestScenario.uninfected[24].veinsmobility co2emission ETV
vector 129 TestScenario.uninfected[25].veinsmobility speed ETV
vector 130 TestScenario.uninfected[27].veinsmobility posx ETV
vector 131 TestScenario.uninfected[27].veinsmobility posy ETV
vector 132 TestScenario.uninfected[25].veinsmobility acceleration ETV
vector 133 TestScenario.uninfected[25].veinsmobility co2emission ETV
vector 134 TestScenario.uninfected[26].veinsmobility speed ETV
vector 135 TestScenario.uninfected[28].veinsmobility posx ETV
vector 136 TestScenario.uninfected[28].veinsmobility posy ETV
vector 137 TestScenario.uninfected[26].veinsmobility acceleration ETV
vector 138 TestScenario.uninfected[26].veinsmobility co2emission ETV
vector 139 TestScenario.uninfected[27].veinsmobility speed ETV
vector 140 TestScenario.uninfected[29].veinsmobility posx ETV
vector 141 TestScenario.uninfected[29].veinsmobility posy ETV
vector 142 TestScenario.uninfected[27].veinsmobility acceleration ETV
vector 143 TestScenario.uninfected[27].veinsmobility co2emission ETV
vector 144 TestScenario.uninfected[28].veinsmobility speed ETV
vector 145 TestScenario.uninfected[30].veinsmobility posx ETV
vector 146 TestScenario.uninfected[30].veinsmobility posy ETV
vector 147 TestScenario.uninfected[28].veinsmobility acceleration ETV
vector 148 TestScenario.uninfected[28].veinsmobility co2emission ETV
vector 149 TestScenario.uninfected[29].veinsmobility speed ETV
vector 150 TestScenario.uninfected[31].veinsmobility posx ETV
vector 151 TestScenario.uninfected[31].veinsmobility posy ETV
vector 152 TestScenario.uninfected[29].veinsmobility acceleration ETV
vector 153 TestScenario.uninfected[29].veinsmobility co2emission ETV
vector 154 TestScenario.uninfected[30].veinsmobility speed ETV
vector 155 TestScenario.uninfected[32].veinsmobility posx ETV
vector 156 TestScenario.uninfected[32].veinsmobility posy ETV
vector 157 TestScenario.uninfected[30].veinsmobility acceleration ETV
vector 158 TestScenario.uninfected[30].veinsmobility co2emission ETV
vector 159 TestScenario.uninfected[31].veinsmobility speed ETV
vector 160 TestScenario.uninfected[33].veinsmobility posx ETV
vector 161 TestScenario.uninfected[33].veinsmobility posy ETV
vector 162 TestScenario.uninfected[31].veinsmobility acceleration ETV
vector 163 TestScenario.uninfected[31].veinsmobility co2emission ETV
vector 164 TestScenario.uninfected[32].veinsmobility speed ETV
vector 165 TestScenario.uninfected[34].veinsmobility posx ETV
vector 166 TestScenario.uninfected[34].veinsmobility posy ETV
vector 167 TestScenario.uninfected[32].veinsmobility acceleration ETV
vector 168 TestScenario.uninfected[32].veinsmobility co2emission ETV
vector 169 TestScenario.uninfected[33].veinsmobility speed ETV
vector 170 TestScenario.uninfected[35].veinsmobility posx ETV
vector 171 TestScenario.uninfected[35].veinsmobility posy ETV
vector 172 TestScenario.uninfected[33].veinsmobility acceleration ETV
vector 173 TestScenario.uninfected[33].veinsmobility co2emission ETV
vector 174 TestScenario.uninfected[34].veinsmobility speed ETV
vector 175 TestScenario.uninfected[36].veinsmobility posx ETV
vector 176 TestScenario.uninfected[36].veinsmobility posy ETV
vector 177 TestScenario.uninfected[34].veinsmobility acceleration ETV
vector 178 TestScenario.uninfected[34].veinsmobility co2emission ETV
vector 179 TestScenario.uninfected[35].veinsmobility speed ETV
vector 180 TestScenario.uninfected[37].veinsmobility posx ETV
vector 181 TestScenario.uninfected[37].veinsmobility posy ETV
vector 182 TestScenario.uninfected[35].veinsmobility acceleration ETV
vector 183 TestScenario.uninfected[35].veinsmobility co2emission ETV
vector 184 TestScenario.uninfected[36].veinsmobility speed ETV
vector 185 TestScenario.exploited[38].veinsmobility posx ETV
vector 186 TestScenario.exploited[38].veinsmobility posy ETV
vector 187 TestScenario.uninfected[36].veinsmobility acceleration ETV
vector 188 TestScenario.uninfected[36].veinsmobility co2emission ETV
vector 189 TestScenario.uninfected[37].veinsmobility speed ETV
123	4014	26	4.2470345014708
123	4549	27	5.0661862330681
123	4879	28	6.079950978797
123	5360	29	7.3230243331942
123	5682	30	8.9240235753903
123	7066	31	2.0109722434713
123	7598	32	2.0568716109504
123	8638	33	2.0977885387911
123	9665	34	2.1720902235983
123	10576	35	1.8230411974377
123	12260	36	1.9569783809253
123	12974	37	2.1612303098465
123	13766	38	1.8446842016123
123	14348	39	1.998449214513
122	4014	26	1.9364937728643
122	4549	27	1.8525407982757
122	4879	28	1.8723921852489
122	5360	29	1.9461807617871
122	5682	30	2.0763844653475
122	7066	31	-0.0021890662840196
122	7598	32	0.011262865008321
122	8638	33	0.022826147866436
122	9665	34	0.043649995091837
122	10576	35	-0.059190001026728
122	12260	36	-0.018430150742642
122	12974	37	0.041603145184927
122	13766	38	-0.051925646746533
122	14348	39	-0.0054851230490023
119	3326	25	4.1158313905864
119	4014	26	6.0523251634507
119	4549	27	7.9048659617264
119	4879	28	9.7772581469753
119	5360	29	11.723438908762
119	5682	30	13.79982337411
119	7066	31	13.797634307826
119	7598	32	13.808897172834
119	8638	33	13.831723320701
119	9665	34	13.875373315793
119	10576	35	13.816183314766
119	12260	36	13.797753164023
119	12974	37	13.839356309208
119	13766	38	13.787430662462
119	14348	39	13.781945539413
111	3114	24	823.4
111	3326	25	823.4
111	4014	26	823.4
111	4549	27	823.4
111	4879	28	823.4
111	5360	29	823.4
111	5682	30	823.4
111	7066	31	823.4
111	7598	32	823.4
111	8638	33	823.4
111	9665	34	823.4
111	10576	35	823.4
111	12260	36	823.4
111	12974	37	823.4
111	13766	38	823.4
111	14348	39	823.4
110	3114	24	611.62701314464
110	3326	25	611.62701314464
110	4014	26	608.43310068086
110	4549	27	603.22692362814
110	4879	28	596.16139052411
110	5360	29	587.24297944746
110	5682	30	576.36809636932
110	7066	31	563.49212675836
110	7598	32	549.68511629315
110	8638	33	535.87678401278
110	9665	34	522.0441472438
110	10576	35	508.224764468
110	12260	36	494.40301501719
110	12974	37	480.57301267717
110	13766	38	466.74279756072
110	14348	39	452.93293115548
vector 190 TestScenario.uninfected[39].veinsmobility posx ETV
vector 191 TestScenario.uninfected[39].veinsmobility posy ETV
vector 192 TestScenario.uninfected[37].veinsmobility acceleration ETV
vector 193 TestScenario.uninfected[37].veinsmobility co2emission ETV
vector 194 TestScenario.exploited[38].veinsmobility speed ETV
vector 195 TestScenario.uninfected[40].veinsmobility posx ETV
vector 196 TestScenario.uninfected[40].veinsmobility posy ETV
vector 197 TestScenario.exploited[38].veinsmobility acceleration ETV
vector 198 TestScenario.exploited[38].veinsmobility co2emission ETV
vector 199 TestScenario.uninfected[39].veinsmobility speed ETV
vector 200 TestScenario.uninfected[39].veinsmobility acceleration ETV
vector 201 TestScenario.uninfected[39].veinsmobility co2emission ETV
vector 202 TestScenario.uninfected[40].veinsmobility speed ETV
vector 203 TestScenario.exploited[41].veinsmobility posx ETV
vector 204 TestScenario.exploited[41].veinsmobility posy ETV
vector 205 TestScenario.uninfected[42].veinsmobility posx ETV
vector 206 TestScenario.uninfected[42].veinsmobility posy ETV
vector 207 TestScenario.uninfected[40].veinsmobility acceleration ETV
vector 208 TestScenario.uninfected[40].veinsmobility co2emission ETV
vector 209 TestScenario.exploited[43].veinsmobility posx ETV
vector 210 TestScenario.exploited[43].veinsmobility posy ETV
vector 211 TestScenario.exploited[41].veinsmobility speed ETV
vector 212 TestScenario.uninfected[42].veinsmobility speed ETV
vector 213 TestScenario.uninfected[44].veinsmobility posx ETV
vector 214 TestScenario.uninfected[44].veinsmobility posy ETV
vector 215 TestScenario.exploited[41].veinsmobility acceleration ETV
vector 216 TestScenario.exploited[41].veinsmobility co2emission ETV
vector 217 TestScenario.uninfected[42].veinsmobility acceleration ETV
vector 218 TestScenario.uninfected[42].veinsmobility co2emission ETV
vector 219 TestScenario.exploited[43].veinsmobility speed ETV
vector 220 TestScenario.uninfected[45].veinsmobility posx ETV
vector 221 TestScenario.uninfected[45].veinsmobility posy ETV
vector 222 TestScenario.exploited[43].veinsmobility acceleration ETV
vector 223 TestScenario.exploited[43].veinsmobility co2emission ETV
vector 224 TestScenario.uninfected[44].veinsmobility speed ETV
vector 225 TestScenario.uninfected[46].veinsmobility posx ETV
vector 226 TestScenario.uninfected[46].veinsmobility posy ETV
vector 227 TestScenario.uninfected[44].veinsmobility acceleration ETV
vector 228 TestScenario.uninfected[44].veinsmobility co2emission ETV
vector 229 TestScenario.uninfected[45].veinsmobility speed ETV
vector 230 TestScenario.uninfected[47].veinsmobility posx ETV
vector 231 TestScenario.uninfected[47].veinsmobility posy ETV
vector 232 TestScenario.uninfected[45].veinsmobility acceleration ETV
vector 233 TestScenario.uninfected[45].veinsmobility co2emission ETV
vector 234 TestScenario.uninfected[46].veinsmobility speed ETV
vector 235 TestScenario.uninfected[48].veinsmobility posx ETV
vector 236 TestScenario.uninfected[48].veinsmobility posy ETV
vector 237 TestScenario.uninfected[46].veinsmobility acceleration ETV
vector 238 TestScenario.uninfected[46].veinsmobility co2emission ETV
vector 239 TestScenario.uninfected[47].veinsmobility speed ETV
vector 240 TestScenario.uninfected[49].veinsmobility posx ETV
vector 241 TestScenario.uninfected[49].veinsmobility posy ETV
vector 242 TestScenario.uninfected[47].veinsmobility acceleration ETV
vector 243 TestScenario.uninfected[47].veinsmobility co2emission ETV
vector 244 TestScenario.uninfected[48].veinsmobility speed ETV
vector 245 TestScenario.uninfected[48].veinsmobility acceleration ETV
vector 246 TestScenario.uninfected[48].veinsmobility co2emission ETV
vector 247 TestScenario.uninfected[49].veinsmobility speed ETV
23	7	6	4.2946323108477
23	8	7	5.11749157018
23	9	8	6.9283691925252
23	10	9	8.0209828473551
23	11	10	7.2741174462118
23	12	11	2.2184410870702
23	13	12	1.7142022338355
23	14	13	2.1108137111118
23	15	14	2.1750719672801
23	16	15	2.0013723990503
23	37	16	2.1900591478925
23	78	17	1.7817277856876
23	173	18	1.9952042377431
23	387	19	1.9769999379408
23	647	20	2.3360814416977
23	1181	21	1.9571741946416
23	1772	22	1.826853394904
23	2368	23	2.0533324883292
23	3114	24	2.2556039139129
23	3326	25	1.6946567250215
23	4014	26	2.0985239665076
23	4549	27	2.0449572567947
23	4879	28	2.1656804881705
23	5360	29	1.8979467999451
23	5682	30	2.0458068265841
23	7066	31	1.7838978960757
23	7598	32	1.1206470666852
23	8638	33	0.973
23	9665	34	0.973
23	10576	35	0.973
23	12260	36	1.4899052766582
23	12974	37	4.8811859291632
23	13766	38	5.3227275427275
23	14348	39	6.7571949366695
23	14938	40	7.8713636336584
23	16033	41	6.566371346619
23	17205	42	1.6434182815291
23	18310	43	2.3693207073919
23	19964	44	1.9670904881749
23	20936	45	2.0206936725458
23	22848	46	2.0647851454722
23	24192	47	1.8054961082125
23	26126	48	2.0039369739667
23	28218	49	2.0166083626523
23	29575	50	2.1381759128967
23	32961	51	1.7989168440948
22	7	6	1.9424539956544
22	8	7	1.8580689705699
22	9	8	2.144160495922
22	10	9	2.089649444879
22	11	10	1.5804702460627
22	12	11	0.058156176311895
22	13	12	-0.090685633779502
22	14	13	0.027955034000334
22	15	14	0.045741215925663
22	16	15	-0.0061526956874864
22	37	16	0.048787088359239
22	78	17	-0.071463992516509
22	173	18	-0.0071141999587407
22	387	19	-0.012226008835714
22	647	20	0.092374406023882
22	1181	21	-0.020280552445911
22	1772	22	-0.05777485150611
22	2368	23	0.0099832921731284
22	3114	24	0.068314171805977
22	3326	25	-0.09706901778234
22	4014	26	0.023717492071444
22	4549	27	0.0073950352100667
22	4879	28	0.042232257022988
22	5360	29	-0.036897604898551
22	5682	30	0.0072607503016489
22	7066	31	-0.069556970009581
22	7598	32	-0.26669485595754
22	8638	33	-3.3827432980991
22	9665	34	-3.0377331170417
22	10576	35	-2.5332168909003
22	12260	36	0.12903538155704
22	12974	37	2.0953142652544
22	13766	38	1.8100852950721
22	14348	39	1.9776116771717
22	14938	40	1.9784596492327
22	16033	41	1.3561836847244
22	17205	42	-0.11222815610934
22	18310	43	0.10253738598898
22	19964	44	-0.017224935295525
22	20936	45	-0.0011434116750024
22	22848	46	0.011691870787182
22	24192	47	-0.064221915623639
22	26126	48	-0.0044511152431372
22	28218	49	-0.00062288759043483
22	29575	50	0.034779573259875
22	32961	51	-0.065288072749972
19	6	5	4.1837425248161
19	7	6	6.1261965204705
19	8	7	7.9842654910403
19	9	8	10.128425986962
19	10	9	12.218075431841
19	11	10	13.798545677904
19	12	11	13.856701854216
19	13	12	13.766016220436
19	14	13	13.793971254437
19	15	14	13.839712470362
19	16	15	13.833559774675
19	37	16	13.882346863034
19	78	17	13.810882870518
19	173	18	13.803768670559
19	387	19	13.791542661723
19	647	20	13.883917067747
19	1181	21	13.863636515301
19	1772	22	13.805861663795
19	2368	23	13.815844955968
19	3114	24	13.884159127774
19	3326	25	13.787090109992
19	4014	26	13.810807602063
19	4549	27	13.818202637273
19	4879	28	13.860434894296
19	5360	29	13.823537289398
19	5682	30	13.830798039699
19	7066	31	13.76124106969
19	7598	32	13.494546213732
19	8638	33	10.111802915633
19	9665	34	7.0740697985915
19	10576	35	4.5408529076912
19	12260	36	4.6698882892483
19	12974	37	6.7652025545027
19	13766	38	8.5752878495748
19	14348	39	10.552899526746
19	14938	40	12.531359175979
19	16033	41	13.887542860704
19	17205	42	13.775314704594
19	18310	43	13.877852090583
19	19964	44	13.860627155288
19	20936	45	13.859483743613
19	22848	46	13.8711756144
19	24192	47	13.806953698776
19	26126	48	13.802502583533
19	28218	49	13.801879695943
19	29575	50	13.836659269203
19	32961	51	13.771371196453
11	5	4	611.63399887184
11	6	5	611.63399887184
11	7	6	608.44140993568
11	8	7	603.24065654773
11	9	8	596.11585985655
11	10	9	586.98487779614
11	11	10	575.69661619577
11	12	11	562.4854202618
11	13	12	548.65611921134
11	14	13	534.82768424248
11	15	14	521.00029293491
11	16	15	507.17435879345
11	37	16	493.34425406366
11	78	17	479.5190156441
11	173	18	465.69333339905
11	387	19	451.85975631532
11	647	20	438.03740382554
11	1181	21	424.19202995781
11	1772	22	410.35006458624
11	2368	23	396.54056952833
11	3114	24	382.70586431078
11	3326	25	368.86794331507
11	4014	26	355.04028404677
11	4549	27	341.22689440211
11	4879	28	327.40072156084
11	5360	29	313.58610689668
11	5682	30	299.74274871486
11	7066	31	285.89502352415
11	7598	32	272.098878221
11	8638	33	258.31424054466
11	9665	34	246.67806584828
11	10576	35	238.23246701596
11	12260	36	232.59993370987
11	12974	37	228.64818404609
11	13766	38	224.36467007111
11	14348	39	223.4
11	14938	40	223.4
11	16033	41	223.4
11	17205	42	223.4
11	18310	43	223.4
11	19964	44	223.4
11	20936	45	223.4
11	22848	46	223.4
11	24192	47	223.4
11	26126	48	223.4
11	28218	49	223.4
11	29575	50	223.4
11	32961	51	223.4
10	5	4	226.6
10	6	5	226.6
10	7	6	226.6
10	8	7	226.6
10	9	8	226.6
10	10	9	226.6
10	11	10	226.6
10	12	11	226.6
10	13	12	226.6
10	14	13	226.6
10	15	14	226.6
10	16	15	226.6
10	37	16	226.6
10	78	17	226.6
10	173	18	226.6
10	387	19	226.6
10	647	20	226.6
10	1181	21	226.6
10	1772	22	226.6
10	2368	23	226.6
10	3114	24	226.6
10	3326	25	226.6
10	4014	26	226.6
10	4549	27	226.6
10	4879	28	226.6
10	5360	29	226.6
10	5682	30	226.6
10	7066	31	226.6
10	7598	32	226.6
10	8638	33	226.6
10	9665	34	226.6
10	10576	35	226.6
10	12260	36	226.6
10	12974	37	226.09259772087
10	13766	38	222.34111678518
10	14348	39	214.70126464594
10	14938	40	205.05431647656
10	16033	41	193.40157111009
10	17205	42	179.89530766065
10	18310	43	166.05484720411
10	19964	44	152.2147783257
10	20936	45	138.38329765861
10	22848	46	124.546327547
10	24192	47	110.70705513018
10	26126	48	96.907920276098
10	28218	49	83.101769035161
10	29575	50	69.264362380885
10	32961	51	55.4277867264
vector 248 TestScenario.uninfected[50].veinsmobility posx ETV
vector 249 TestScenario.uninfected[50].veinsmobility posy ETV
vector 250 TestScenario.uninfected[49].veinsmobility acceleration ETV
vector 251 TestScenario.uninfected[49].veinsmobility co2emission ETV
83	173	18	4.3031775780322
83	387	19	5.6607572575749
83	647	20	6.7751010771682
83	1181	21	7.4851854216473
83	1772	22	7.7315957575792
83	2368	23	1.8339218456967
83	3114	24	2.275232078657
83	3326	25	1.6743438285585
83	4014	26	2.0147574994863
83	4549	27	2.3289314251835
83	4879	28	2.0270679773511
83	5360	29	1.7291787494463
83	5682	30	0.973
83	7066	31	0.973
83	7598	32	0.973
83	8638	33	0.973
83	9665	34	0.973
83	10576	35	0.973
83	12260	36	2.4648446671365
83	12974	37	3.5824304222016
83	13766	38	4.6443471420928
83	14348	39	5.7806757461755
83	14938	40	6.5906017568586
83	16033	41	7.7986166994837
83	17205	42	6.4074972102444
83	18310	43	2.0924472027418
83	19964	44	1.8314919710601
83	20936	45	2.0053776769035
83	22848	46	2.1832229123343
83	24192	47	1.9656317553961
83	26126	48	2.0518366037364
83	28218	49	2.2515765735985
83	29575	50	1.9145485031631
83	32961	51	1.82975902388
83	34263	52	2.1077583927651
82	173	18	1.9730866684276
82	387	19	2.0915543607646
82	647	20	2.0619538597716
82	1181	21	1.9233956186241
82	1772	22	1.7108284915758
82	2368	23	-0.055232627727092
82	3114	24	0.074869500747882
82	3326	25	-0.10261388665298
82	4014	26	2.1531160456334e-005
82	4549	27	0.091355518165509
82	4879	28	0.00091494608903453
82	5360	29	-0.086227174837335
82	5682	30	-3.3647129501222
82	7066	31	-2.9716048505101
82	7598	32	-2.739929971401
82	8638	33	-1.9935085075539
82	9665	34	-1.4495243837078
82	10576	35	-0.71750686252779
82	12260	36	2.0096297506112
82	12974	37	2.034094144071
82	13766	38	2.0101518953312
82	14348	39	2.0228101808252
82	14938	40	1.917821342682
82	16033	41	1.9623939820705
82	17205	42	1.3187753066534
82	18310	43	0.021325252598617
82	19964	44	-0.055516676681581
82	20936	45	-0.0030388026800949
82	22848	46	0.048890950463248
82	24192	47	-0.015978284219747
82	26126	48	0.0096367558441131
82	28218	49	0.067264024142641
82	29575	50	-0.03257864669431
82	32961	51	-0.056503871660679
82	34263	52	0.026291620000265
79	78	17	4.084423409418
79	173	18	6.0575100778456
79	387	19	8.1490644386101
79	647	20	10.211018298382
79	1181	21	12.134413917006
79	1772	22	13.845242408582
79	2368	23	13.790009780854
79	3114	24	13.864879281602
79	3326	25	13.762265394949
79	4014	26	13.76228692611
79	4549	27	13.853642444275
79	4879	28	13.854557390364
79	5360	29	13.768330215527
79	5682	30	10.403617265405
79	7066	31	7.4320124148947
79	7598	32	4.6920824434938
79	8638	33	2.6985739359399
79	9665	34	1.2490495522321
79	10576	35	0.5315426897043
79	12260	36	2.5411724403155
79	12974	37	4.5752665843865
79	13766	38	6.5854184797177
79	14348	39	8.6082286605429
79	14938	40	10.526050003225
79	16033	41	12.488443985295
79	17205	42	13.807219291949
79	18310	43	13.828544544547
79	19964	44	13.773027867866
79	20936	45	13.769989065186
79	22848	46	13.818880015649
79	24192	47	13.802901731429
79	26126	48	13.812538487273
79	28218	49	13.879802511416
79	29575	50	13.847223864722
79	32961	51	13.790719993061
79	34263	52	13.817011613061
71	37	16	423.4
71	78	17	423.4
71	173	18	423.4
71	387	19	423.4
71	647	20	423.4
71	1181	21	423.4
71	1772	22	423.4
71	2368	23	423.4
71	3114	24	423.4
71	3326	25	423.4
71	4014	26	423.4
71	4549	27	423.4
71	4879	28	423.4
71	5360	29	423.4
71	5682	30	423.4
71	7066	31	423.4
71	7598	32	423.4
71	8638	33	423.4
71	9665	34	423.4
71	10576	35	423.4
71	12260	36	423.4
71	12974	37	423.4
71	13766	38	423.4
71	14348	39	423.4
71	14938	40	423.4
71	16033	41	423.4
71	17205	42	423.4
71	18310	43	423.4
71	19964	44	423.4
71	20936	45	423.4
71	22848	46	423.4
71	24192	47	423.4
71	26126	48	423.4
71	28218	49	423.4
71	29575	50	423.4
71	32961	51	423.4
71	34263	52	423.4
70	37	16	611.63982373774
70	78	17	611.63982373774
70	173	18	608.39153346006
70	387	19	603.25818555731
70	647	20	596.03501578803
70	1181	21	586.74328977499
70	1772	22	575.44281379524
70	2368	23	562.25074123752
70	3114	24	548.4231651267
70	3326	25	534.59455793722
70	4014	26	520.79694281238
70	4549	27	506.97322835961
70	4879	28	493.16425767778
70	5360	29	479.3288137764
70	5682	30	465.49626163354
70	7066	31	453.54470427684
70	7598	32	444.79940768041
70	8638	33	438.92726076794
70	9665	34	435.40565050779
70	10576	35	433.60168591139
70	12260	36	432.79208774913
70	12974	37	431.21748253627
70	13766	38	427.62847881409
70	14348	39	421.96643766489
70	14938	40	414.28703115386
70	16033	41	404.63044395743
70	17205	42	393.01201465471
70	18310	43	379.61727161864
70	19964	44	365.78968348436
70	20936	45	351.97427597477
70	22848	46	338.14730645669
70	24192	47	324.32571554818
70	26126	48	310.50980761517
70	28218	49	296.69693803179
70	29575	50	282.8686473803
70	32961	51	269.03528095078
70	34263	52	255.22047523668
108	2368	23	4.356223153659
108	3114	24	5.3447597600143
108	3326	25	6.688184619887
108	4014	26	7.8535248449056
108	4549	27	7.53246790803
108	4879	28	2.0746367298129
108	5360	29	2.147366283486
108	5682	30	1.7470304786552
108	7066	31	2.2633704880918
108	7598	32	2.0045424973386
108	8638	33	2.0254204090633
108	9665	34	1.8645537516443
108	10576	35	2.0992205929112
108	12260	36	0.973
108	12974	37	0.973
108	13766	38	1.4894830568881
108	14348	39	4.3527111395835
108	14938	40	6.3550755314165
108	16033	41	7.6075676704497
108	17205	42	8.5852638151056
108	18310	43	2.0182892251956
108	19964	44	2.0483790385341
108	20936	45	1.8912162736066
108	22848	46	1.8540302021891
108	24192	47	2.0031340866535
108	26126	48	2.1826779573917
108	28218	49	2.0458233414998
108	29575	50	1.8317293116372
108	32961	51	2.3326800694375
108	34263	52	1.665476877412
107	2368	23	1.9734590751049
107	3114	24	1.944059865647
107	3326	25	2.0425128097692
107	4014	26	2.039854479942
107	4549	27	1.6526962840722
107	4879	28	0.015298202761914
107	5360	29	0.03590198313119
107	5682	30	-0.081729773541447
107	7066	31	0.070948281222954
107	7598	32	-0.0062659476161926
107	8638	33	-1.9071311690766e-005
107	9665	34	-0.046884176183957
107	10576	35	0.022830365740228
107	12260	36	-3.2925021645194
107	12974	37	-4.1076572521566
107	13766	38	0.027078734980896
107	14348	39	1.4698862265912
107	14938	40	1.9601745283813
107	16033	41	2.0089857682609
107	17205	42	1.9619137388887
107	18310	43	-0.0022016835375691
107	19964	44	0.0065960244881005
107	20936	45	-0.039315150675831
107	22848	46	-0.04914984929608
107	24192	47	-0.0041560142068207
107	26126	48	0.048252140369733
107	28218	49	0.0069848732487294
107	29575	50	-0.05573811361799
107	32961	51	0.091657692012376
107	34263	52	-0.10547067338834
104	1772	22	4.1823363179106
104	2368	23	6.1557953930155
104	3114	24	8.0998552586625
104	3326	25	10.142368068432
104	4014	26	12.182222548374
104	4549	27	13.834918832446
104	4879	28	13.850217035208
104	5360	29	13.886119018339
104	5682	30	13.804389244798
104	7066	31	13.875337526021
104	7598	32	13.869071578404
104	8638	33	13.869052507093
104	9665	34	13.822168330909
104	10576	35	13.844998696649
104	12260	36	10.55249653213
104	12974	37	6.4448392799729
104	13766	38	6.4719180149538
104	14348	39	7.941804241545
104	14938	40	9.9019787699263
104	16033	41	11.910964538187
104	17205	42	13.872878277076
104	18310	43	13.870676593538
104	19964	44	13.877272618026
104	20936	45	13.837957467351
104	22848	46	13.788807618055
104	24192	47	13.784651603848
104	26126	48	13.832903744217
104	28218	49	13.839888617466
104	29575	50	13.784150503848
104	32961	51	13.875808195861
104	34263	52	13.770337522472
96	1181	21	238.37094110352
96	1772	22	238.37094110352
96	2368	23	241.63615844597
96	3114	24	246.93538970762
96	3326	25	254.09066248466
96	4014	26	263.31347223144
96	4549	27	274.52418012398
96	4879	28	287.68348602781
96	5360	29	301.50193217232
96	5682	30	315.35965673558
96	7066	31	329.19826362062
96	7598	32	343.02802109214
96	8638	33	356.86933993268
96	9665	34	370.69734700415
96	10576	35	384.53260174516
96	12260	36	398.36382608331
96	12974	37	410.83323594277
96	13766	38	418.94349551254
96	14348	39	423.19841497971
96	14938	40	423.4
96	16033	41	423.4
96	17205	42	423.4
96	18310	43	423.4
96	19964	44	423.4
96	20936	45	423.4
96	22848	46	423.4
96	24192	47	423.4
96	26126	48	423.4
96	28218	49	423.4
96	29575	50	423.4
96	32961	51	423.4
96	34263	52	423.4
95	1181	21	823.4
95	1772	22	823.4
95	2368	23	823.4
95	3114	24	823.4
95	3326	25	823.4
95	4014	26	823.4
95	4549	27	823.4
95	4879	28	823.4
95	5360	29	823.4
95	5682	30	823.4
95	7066	31	823.4
95	7598	32	823.4
95	8638	33	823.4
95	9665	34	823.4
95	10576	35	823.4
95	12260	36	823.4
95	12974	37	823.4
95	13766	38	823.23664349821
95	14348	39	819.21109514201
95	14938	40	812.19959110489
95	16033	41	803.19141384917
95	17205	42	792.16997910626
95	18310	43	779.15297328499
95	19964	44	765.30818170552
95	20936	45	751.47896240787
95	22848	46	737.65094085173
95	24192	47	723.84072248382
95	26126	48	710.02888735719
95	28218	49	696.21440556311
95	29575	50	682.37988220783
95	32961	51	668.56306553048
95	34263	52	654.72294397311
vector 252 TestScenario.uninfected[51].veinsmobility posx ETV
vector 253 TestScenario.uninfected[51].veinsmobility posy ETV
vector 254 TestScenario.exploited[52].veinsmobility posx ETV
vector 255 TestScenario.exploited[52].veinsmobility posy ETV
vector 256 TestScenario.uninfected[50].veinsmobility speed ETV
vector 257 TestScenario.uninfected[50].veinsmobility acceleration ETV
vector 258 TestScenario.uninfected[50].veinsmobility co2emission ETV
vector 259 TestScenario.uninfected[51].veinsmobility speed ETV
vector 260 TestScenario.exploited[52].veinsmobility speed ETV
vector 261 TestScenario.uninfected[53].veinsmobility posx ETV
vector 262 TestScenario.uninfected[53].veinsmobility posy ETV
vector 263 TestScenario.uninfected[51].veinsmobility acceleration ETV
vector 264 TestScenario.uninfected[51].veinsmobility co2emission ETV
vector 265 TestScenario.exploited[52].veinsmobility acceleration ETV
vector 266 TestScenario.exploited[52].veinsmobility co2emission ETV
vector 267 TestScenario.exploited[54].veinsmobility posx ETV
vector 268 TestScenario.exploited[54].veinsmobility posy ETV
vector 269 TestScenario.uninfected[53].veinsmobility speed ETV
vector 270 TestScenario.uninfected[55].veinsmobility posx ETV
vector 271 TestScenario.uninfected[55].veinsmobility posy ETV
vector 272 TestScenario.uninfected[56].veinsmobility posx ETV
vector 273 TestScenario.uninfected[56].veinsmobility posy ETV
vector 274 TestScenario.uninfected[53].veinsmobility acceleration ETV
vector 275 TestScenario.uninfected[53].veinsmobility co2emission ETV
vector 276 TestScenario.exploited[54].veinsmobility speed ETV
vector 277 TestScenario.uninfected[57].veinsmobility posx ETV
vector 278 TestScenario.uninfected[57].veinsmobility posy ETV
vector 279 TestScenario.exploited[54].veinsmobility acceleration ETV
vector 280 TestScenario.exploited[54].veinsmobility co2emission ETV
vector 281 TestScenario.uninfected[55].veinsmobility speed ETV
vector 282 TestScenario.uninfected[56].veinsmobility speed ETV
vector 283 TestScenario.uninfected[58].veinsmobility posx ETV
vector 284 TestScenario.uninfected[58].veinsmobility posy ETV
vector 285 TestScenario.uninfected[55].veinsmobility acceleration ETV
vector 286 TestScenario.uninfected[55].veinsmobility co2emission ETV
vector 287 TestScenario.uninfected[56].veinsmobility acceleration ETV
vector 288 TestScenario.uninfected[56].veinsmobility co2emission ETV
vector 289 TestScenario.uninfected[57].veinsmobility speed ETV
vector 290 TestScenario.uninfected[59].veinsmobility posx ETV
vector 291 TestScenario.uninfected[59].veinsmobility posy ETV
vector 292 TestScenario.uninfected[57].veinsmobility acceleration ETV
vector 293 TestScenario.uninfected[57].veinsmobility co2emission ETV
vector 294 TestScenario.uninfected[58].veinsmobility speed ETV
vector 295 TestScenario.uninfected[60].veinsmobility posx ETV
vector 296 TestScenario.uninfected[60].veinsmobility posy ETV
vector 297 TestScenario.uninfected[58].veinsmobility acceleration ETV
vector 298 TestScenario.uninfected[58].veinsmobility co2emission ETV
vector 299 TestScenario.uninfected[59].veinsmobility speed ETV
53	13	12	4.4158333954915
53	14	13	5.5898647927016
53	15	14	6.3411078593907
53	16	15	7.1510958354444
53	37	16	8.3036721827022
53	78	17	1.8280485687585
53	173	18	2.3799425531383
53	387	19	1.8079078171878
53	647	20	2.1523524950946
53	1181	21	1.7555308470563
53	1772	22	1.9899749891473
53	2368	23	2.1349951349256
53	3114	24	0.973
53	3326	25	0.973
53	4014	26	0.973
53	4549	27	0.973
53	4879	28	4.3267428312223
53	5360	29	4.8442048383946
53	5682	30	5.7138513250788
53	7066	31	7.2747386212535
53	7598	32	7.7438569130205
53	8638	33	4.3398751410541
53	9665	34	2.1762654305304
53	10576	35	2.1001296873302
53	12260	36	1.9547269803091
53	12974	37	1.6896785139521
53	13766	38	2.1263738866706
53	14348	39	2.1373241057852
53	14938	40	2.0576999887492
53	16033	41	0.973
53	17205	42	0.973
53	18310	43	0.973
53	19964	44	0.973
53	20936	45	1.6442662058491
53	22848	46	4.1911487512978
53	24192	47	1.7898724385261
53	26126	48	6.2337504351364
53	28218	49	7.4717012321539
53	29575	50	8.1635745955625
53	32961	51	4.8783825718974
53	34263	52	2.0228796588327
53	36980	53	2.1445268515061
53	38664	54	2.0167847495148
53	41033	55	1.8576208380324
53	44326	56	1.9487655581204
53	46426	57	2.1241273908134
53	48350	58	1.9264972271367
53	51114	59	2.31661789705
53	52997	60	1.9932282733033
53	55232	61	1.8342284724781
52	13	12	2.0098060333123
52	14	13	2.0393743380392
52	15	14	1.9070333667798
52	16	15	1.8418916055281
52	37	16	1.8834760791553
52	78	17	-0.056770565467888
52	173	18	0.10537898412906
52	387	19	-0.063904051186983
52	647	20	0.038224474000744
52	1181	21	-0.078631142256782
52	1772	22	-0.0078153961501073
52	2368	23	0.034726212741807
52	3114	24	-1.8624579006057
52	3326	25	-3.2541795379146
52	4014	26	-2.8160720558952
52	4549	27	-2.4652487403672
52	4879	28	2.176535610612
52	5360	29	1.8592165893735
52	5682	30	1.8267666454259
52	7066	31	2.0165962711372
52	7598	32	1.8315641310881
52	8638	33	0.69649914772017
52	9665	34	0.045289125088603
52	10576	35	0.021804669674019
52	12260	36	-0.021038705385289
52	12974	37	-0.098087458582595
52	13766	38	0.032473929792177
52	14348	39	0.034626676992048
52	14938	40	0.010418909932486
52	16033	41	-0.34765768228849
52	17205	42	-3.3747401821974
52	18310	43	-3.0218503901531
52	19964	44	-2.681024994198
52	20936	45	0.2647674892984
52	22848	46	1.7661563010951
52	24192	47	0.20666841558181
52	26126	48	2.1768242706242
52	28218	49	2.1557236990239
52	29575	50	1.9902686218545
52	32961	51	0.85660891081207
52	34263	52	0.0002263657143331
52	36980	53	0.035535978919361
52	38664	54	-0.0025971598667098
52	41033	55	-0.048906223264057
52	44326	56	-0.020936705609783
52	46426	57	0.03078973449068
52	48350	58	-0.027719896805937
52	51114	59	0.086390224036295
52	52997	60	-0.0099323456780986
52	55232	61	-0.055997937016656
49	12	11	4.1564618187956
49	13	12	6.166267852108
49	14	13	8.2056421901472
49	15	14	10.112675556927
49	16	15	11.954567162455
49	37	16	13.83804324161
49	78	17	13.781272676142
49	173	18	13.886651660271
49	387	19	13.822747609084
49	647	20	13.860972083085
49	1181	21	13.782340940828
49	1772	22	13.774525544678
49	2368	23	13.80925175742
49	3114	24	11.946793856814
49	3326	25	8.6926143188998
49	4014	26	5.8765422630045
49	4549	27	3.4112935226373
49	4879	28	5.5878291332494
49	5360	29	7.4470457226229
49	5682	30	9.2738123680488
49	7066	31	11.290408639186
49	7598	32	13.121972770274
49	8638	33	13.818471917994
49	9665	34	13.863761043083
49	10576	35	13.885565712757
49	12260	36	13.864527007372
49	12974	37	13.766439548789
49	13766	38	13.798913478581
49	14348	39	13.833540155573
49	14938	40	13.843959065506
49	16033	41	13.496301383217
49	17205	42	10.12156120102
49	18310	43	7.0997108108667
49	19964	44	4.4186858166688
49	20936	45	4.6834533059672
49	22848	46	6.4496096070623
49	24192	47	6.6562780226441
49	26126	48	8.8331022932683
49	28218	49	10.988825992292
49	29575	50	12.979094614147
49	32961	51	13.835703524959
49	34263	52	13.835929890673
49	36980	53	13.871465869593
49	38664	54	13.868868709726
49	41033	55	13.819962486462
49	44326	56	13.799025780852
49	46426	57	13.829815515343
49	48350	58	13.802095618537
49	51114	59	13.888485842573
49	52997	60	13.878553496895
49	55232	61	13.822555559878
41	11	10	438.37394646382
41	12	11	438.37394646382
41	13	12	441.58845933473
41	14	13	446.83619563402
41	15	14	454.10210413421
41	16	15	463.41379122539
41	37	16	474.52489119191
41	78	17	487.61989248204
41	173	18	501.46260263839
41	387	19	515.2955786829
41	647	20	529.09595643714
41	1181	21	542.93415907148
41	1772	22	556.77824800036
41	2368	23	570.59691439604
41	3114	24	584.41417716998
41	3326	25	597.58210501559
41	4014	26	607.678181208
41	4549	27	614.77228717031
41	4879	28	619.2145757503
41	5360	29	623.32864519243
41	5682	30	626.3458057322
41	7066	31	626.6
41	7598	32	626.6
41	8638	33	626.6
41	9665	34	626.6
41	10576	35	626.6
41	12260	36	626.6
41	12974	37	626.6
41	13766	38	626.6
41	14348	39	626.6
41	14938	40	626.6
41	16033	41	626.6
41	17205	42	626.6
41	18310	43	626.6
41	19964	44	626.6
41	20936	45	626.6
41	22848	46	626.6
41	24192	47	627.55038139254
41	26126	48	633.28869191866
41	28218	49	641.14358653165
41	29575	50	651.12915554873
41	32961	51	663.21091385399
41	34263	52	676.82570376001
41	36980	53	690.65475882462
41	38664	54	704.49246031763
41	41033	55	718.3244963424
41	44326	56	732.12567243213
41	46426	57	745.93229038314
41	48350	58	759.74780427406
41	51114	59	773.56355572153
41	52997	60	787.3999609902
41	55232	61	801.23678551265
40	11	10	423.4
40	12	11	423.4
40	13	12	423.4
40	14	13	423.4
40	15	14	423.4
40	16	15	423.4
40	37	16	423.4
40	78	17	423.4
40	173	18	423.4
40	387	19	423.4
40	647	20	423.4
40	1181	21	423.4
40	1772	22	423.4
40	2368	23	423.4
40	3114	24	423.4
40	3326	25	423.4
40	4014	26	423.4
40	4549	27	423.4
40	4879	28	423.60208225004
40	5360	29	424.95718711546
40	5682	30	430.42064012542
40	7066	31	438.82172447121
40	7598	32	449.21211588627
40	8638	33	461.50658987723
40	9665	34	475.26632283393
40	10576	35	489.11746329064
40	12260	36	502.97655165841
40	12974	37	516.80163200515
40	13766	38	530.6413975253
40	14348	39	544.46026455395
40	14938	40	558.2966270047
40	16033	41	572.1268370919
40	17205	42	585.93104929978
40	18310	43	597.53015872353
40	19964	44	605.95287760462
40	20936	45	611.55010768363
40	22848	46	615.52678955368
40	24192	47	621.25063565423
40	26126	48	623.4
40	28218	49	623.4
40	29575	50	623.4
40	32961	51	623.4
40	34263	52	623.4
40	36980	53	623.4
40	38664	54	623.4
40	41033	55	623.4
40	44326	56	623.4
40	46426	57	623.4
40	48350	58	623.4
40	51114	59	623.4
40	52997	60	623.4
40	55232	61	623.4
vector 300 TestScenario.uninfected[61].veinsmobility posx ETV
vector 301 TestScenario.uninfected[61].veinsmobility posy ETV
vector 302 TestScenario.uninfected[59].veinsmobility acceleration ETV
vector 303 TestScenario.uninfected[59].veinsmobility co2emission ETV
vector 304 TestScenario.uninfected[60].veinsmobility speed ETV
73	37	16	3.9862190109624
73	78	17	5.2439363762026
73	173	18	5.8809233641537
73	387	19	6.9119578193282
73	647	20	7.497875880631
73	1181	21	4.1487207844093
73	1772	22	2.0754051413546
73	2368	23	1.9161219244682
73	3114	24	2.3527339413147
73	3326	25	2.038054006863
73	4014	26	1.8919011027783
73	4549	27	1.8883842942692
73	4879	28	2.2011792986786
73	5360	29	1.9434357847195
73	5682	30	2.1827333578661
73	7066	31	1.9501541345475
73	7598	32	1.8752379707187
73	8638	33	2.0930585506867
73	9665	34	1.8993773499833
73	10576	35	2.2837051652971
73	12260	36	2.0331834943886
73	12974	37	1.6791094622162
73	13766	38	1.9993470743939
73	14348	39	2.0114888579747
73	14938	40	2.3563492331315
73	16033	41	1.875632657838
73	17205	42	0.973
73	18310	43	0.973
73	19964	44	0.973
73	20936	45	1.5925550148661
73	22848	46	0.973
73	24192	47	1.5668872471042
73	26126	48	4.5428055301402
73	28218	49	5.351047292109
73	29575	50	6.5768985282991
73	32961	51	8.0464415416025
73	34263	52	6.652675162384
73	36980	53	2.3267380958151
73	38664	54	1.631554644278
73	41033	55	2.3816819347031
73	44326	56	1.8367753148305
73	46426	57	2.0192946363847
73	48350	58	1.8580702925933
73	51114	59	2.1894739821498
73	52997	60	1.9438769512372
73	55232	61	2.0969713731726
73	58388	62	2.2374875679741
72	37	16	1.8861530219414
72	78	17	2.0067676474224
72	173	18	1.8412519100052
72	387	19	1.8623991489946
72	647	20	1.7497275516693
72	1181	21	0.64142661141547
72	1772	22	0.016951594427228
72	2368	23	-0.030076877861285
72	3114	24	0.097767108145636
72	3326	25	0.0035374280600813
72	4014	26	-0.039090238853824
72	4549	27	-0.039070032523012
72	4879	28	0.053170317478942
72	5360	29	-0.023370667893905
72	5682	30	0.046851184081753
72	7066	31	-0.022068654799368
72	7598	32	-0.043329968582839
72	8638	33	0.021434625594411
72	9665	34	-0.035681017285679
72	10576	35	0.07713771373732
72	12260	36	0.0021383749321089
72	12974	37	-0.1014248578879
72	13766	38	-0.0048032619548035
72	14348	39	-0.001110418785828
72	14938	40	0.099095461620017
72	16033	41	-0.04357129430864
72	17205	42	-1.4114465782769
72	18310	43	-2.9506931278619
72	19964	44	-1.2378094366804
72	20936	45	0.016823028681932
72	22848	46	-3.9201277929257
72	24192	47	0.21047891430324
72	26126	48	1.9737774120248
72	28218	49	1.8735909743793
72	29575	50	1.9545030723256
72	32961	51	2.0630438272678
72	34263	52	1.3947764709266
72	36980	53	0.089751643075141
72	38664	54	-0.1155479597277
72	41033	55	0.10652116507757
72	44326	56	-0.055040534450672
72	46426	57	-0.00021475322079034
72	48350	58	-0.047365098970475
72	51114	59	0.050782633821946
72	52997	60	-0.022323321895675
72	55232	61	0.022984928048682
72	58388	62	0.062972469753586
69	16	15	3.8004325452788
69	37	16	5.6865855672202
69	78	17	7.6933532146426
69	173	18	9.5346051246478
69	387	19	11.397004273642
69	647	20	13.146731825312
69	1181	21	13.788158436727
69	1772	22	13.805110031154
69	2368	23	13.775033153293
69	3114	24	13.872800261439
69	3326	25	13.876337689499
69	4014	26	13.837247450645
69	4549	27	13.798177418122
69	4879	28	13.851347735601
69	5360	29	13.827977067707
69	5682	30	13.874828251789
69	7066	31	13.852759596989
69	7598	32	13.809429628407
69	8638	33	13.830864254001
69	9665	34	13.795183236715
69	10576	35	13.872320950453
69	12260	36	13.874459325385
69	12974	37	13.773034467497
69	13766	38	13.768231205542
69	14348	39	13.767120786756
69	14938	40	13.866216248376
69	16033	41	13.822644954068
69	17205	42	12.411198375791
69	18310	43	9.4605052479288
69	19964	44	8.2226958112484
69	20936	45	8.2395188399303
69	22848	46	4.3193910470046
69	24192	47	4.5298699613078
69	26126	48	6.5036473733326
69	28218	49	8.377238347712
69	29575	50	10.331741420038
69	32961	51	12.394785247305
69	34263	52	13.789561718232
69	36980	53	13.879313361307
69	38664	54	13.763765401579
69	41033	55	13.870286566657
69	44326	56	13.815246032206
69	46426	57	13.815031278986
69	48350	58	13.767666180015
69	51114	59	13.818448813837
69	52997	60	13.796125491941
69	55232	61	13.81911041999
69	58388	62	13.882082889744
61	15	14	411.64691181547
61	16	15	411.64691181547
61	37	16	408.67835709193
61	78	17	403.89903919423
61	173	18	397.16096714621
61	387	19	388.45330929676
61	647	20	377.91473119279
61	1181	21	365.49708532574
61	1772	22	351.77263602147
61	2368	23	337.95033057485
61	3114	24	324.1464695734
61	3326	25	310.31660508002
61	4014	26	296.49178155407
61	4549	27	282.67199670986
61	4879	28	268.838870112
61	5360	29	255.00018601618
61	5682	30	241.17977762942
61	7066	31	227.34711814149
61	7598	32	213.5246425058
61	8638	33	199.70021931789
61	9665	34	185.87855070234
61	10576	35	172.05714205395
61	12260	36	158.23915181019
61	12974	37	144.38978391809
61	13766	38	130.56126590401
61	14348	39	116.74085540511
61	14938	40	102.93572847405
61	16033	41	89.117802295979
61	17205	42	75.314936652217
61	18310	43	61.856996367397
61	19964	44	51.212942500667
61	20936	45	42.637949341162
61	22848	46	34.512209028843
61	24192	47	28.221269156556
61	26126	48	26.6
61	28218	49	26.6
61	29575	50	26.6
61	32961	51	26.6
61	34263	52	26.6
61	36980	53	26.6
61	38664	54	26.6
61	41033	55	26.6
61	44326	56	26.6
61	46426	57	26.6
61	48350	58	26.6
61	51114	59	26.6
61	52997	60	26.6
61	55232	61	26.6
61	58388	62	26.6
60	15	14	26.6
60	16	15	26.6
60	37	16	26.6
60	78	17	26.6
60	173	18	26.6
60	387	19	26.6
60	647	20	26.6
60	1181	21	26.6
60	1772	22	26.6
60	2368	23	26.6
60	3114	24	26.6
60	3326	25	26.6
60	4014	26	26.6
60	4549	27	26.6
60	4879	28	26.6
60	5360	29	26.6
60	5682	30	26.6
60	7066	31	26.6
60	7598	32	26.6
60	8638	33	26.6
60	9665	34	26.6
60	10576	35	26.6
60	12260	36	26.6
60	12974	37	26.6
60	13766	38	26.6
60	14348	39	26.6
60	14938	40	26.6
60	16033	41	26.6
60	17205	42	26.6
60	18310	43	26.6
60	19964	44	26.6
60	20936	45	26.6
60	22848	46	26.6
60	24192	47	26.6
60	26126	48	29.57302441285
60	28218	49	35.221406840145
60	29575	50	42.776437043385
60	32961	51	52.229683420182
60	34263	52	63.713982038387
60	36980	53	77.073296252896
60	38664	54	90.914461749062
60	41033	55	104.74047491694
60	44326	56	118.58166270946
60	46426	57	132.40854508218
60	48350	58	146.24838292337
60	51114	59	160.07022931192
60	52997	60	173.89722915521
60	55232	61	187.7089002842
60	58388	62	201.54138749894
168	10576	35	4.0441523591241
168	12260	36	5.2865860593123
168	12974	37	6.6053786880913
168	13766	38	7.1061567125623
168	14348	39	8.5082596948602
168	14938	40	2.0622551732338
168	16033	41	2.2059199968361
168	17205	42	2.120917193649
168	18310	43	1.9267080447925
168	19964	44	1.9183384814077
168	20936	45	2.0476301209375
168	22848	46	1.7987408837182
168	24192	47	2.2684985884097
168	26126	48	1.7763731953153
168	28218	49	2.0153475442439
168	29575	50	2.1392341591435
168	32961	51	2.2234653255658
168	34263	52	1.8791451584401
168	36980	53	1.883678241696
168	38664	54	2.3733960100339
168	41033	55	1.9528706340083
168	44326	56	1.8805490978303
168	46426	57	1.8499804648104
168	48350	58	2.4097019938106
168	51114	59	1.6154438537414
168	52997	60	2.3660180958861
168	55232	61	1.6741861371528
168	58388	62	2.1349829096188
167	10576	35	1.8160941125103
167	12260	36	1.9548845627881
167	12974	37	2.04289163901
167	13766	38	1.8470676260255
167	14348	39	1.9522887476491
167	14938	40	0.012927087526769
167	16033	41	0.054237099851015
167	17205	42	0.027887916956098
167	18310	43	-0.029302855872084
167	19964	44	-0.030938711417839
167	20936	45	0.0076185963535682
167	22848	46	-0.065346100712196
167	24192	47	0.073558838395403
167	26126	48	-0.072121618459933
167	28218	49	-0.00012236649636144
167	29575	50	0.03601176837692
167	32961	51	0.059263535791542
167	34263	52	-0.042596473153679
167	36980	53	-0.040135179455392
167	38664	54	0.10334279905539
167	41033	55	-0.021668417043983
167	44326	56	-0.042158202587162
167	46426	57	-0.049997908649965
167	48350	58	0.11417592876591
167	51114	59	-0.12050963559188
167	52997	60	0.10182947596535
167	55232	61	-0.10278488187352
167	58388	62	0.034941501766443
164	9665	34	4.181256988586
164	10576	35	5.9973511010963
164	12260	36	7.9522356638844
164	12974	37	9.9951273028944
164	13766	38	11.84219492892
164	14348	39	13.794483676569
164	14938	40	13.807410764096
164	16033	41	13.861647863947
164	17205	42	13.889535780903
164	18310	43	13.860232925031
164	19964	44	13.829294213613
164	20936	45	13.836912809967
164	22848	46	13.771566709254
164	24192	47	13.84512554765
164	26126	48	13.77300392919
164	28218	49	13.772881562694
164	29575	50	13.80889333107
164	32961	51	13.868156866862
164	34263	52	13.825560393708
164	36980	53	13.785425214253
164	38664	54	13.888768013308
164	41033	55	13.867099596264
164	44326	56	13.824941393677
164	46426	57	13.774943485027
164	48350	58	13.889119413793
164	51114	59	13.768609778201
164	52997	60	13.870439254167
164	55232	61	13.767654372293
164	58388	62	13.802595874059
156	8638	33	826.6
156	9665	34	826.6
156	10576	35	826.6
156	12260	36	826.6
156	12974	37	826.6
156	13766	38	826.6
156	14348	39	826.6
156	14938	40	826.6
156	16033	41	826.6
156	17205	42	826.6
156	18310	43	826.6
156	19964	44	826.6
156	20936	45	826.6
156	22848	46	826.6
156	24192	47	826.6
156	26126	48	826.6
156	28218	49	826.6
156	29575	50	826.6
156	32961	51	826.6
156	34263	52	826.6
156	36980	53	826.6
156	38664	54	826.6
156	41033	55	826.6
156	44326	56	826.6
156	46426	57	826.6
156	48350	58	826.6
156	51114	59	826.6
156	52997	60	826.6
156	55232	61	826.6
156	58388	62	826.6
155	8638	33	238.34817816166
155	9665	34	238.34817816166
155	10576	35	241.51449674155
155	12260	36	246.64792097079
155	12974	37	253.70559632256
155	13766	38	262.80122796142
155	14348	39	273.80365720339
155	14938	40	286.73159351459
155	16033	41	300.5556581819
155	17205	42	314.37240714889
155	18310	43	328.19469430876
155	19964	44	342.01760963994
155	20936	45	355.8482620455
155	22848	46	369.66133671962
155	24192	47	383.47944798348
155	26126	48	397.28425021731
155	28218	49	411.10474729531
155	29575	50	424.94667291954
155	32961	51	438.79300630509
155	34263	52	452.64311473957
155	36980	53	466.4625840455
155	38664	54	480.27631044447
155	41033	55	494.11279183688
155	44326	56	507.93331857455
155	46426	57	521.74884635988
155	48350	58	535.56601301414
155	51114	59	549.38753406764
155	52997	60	563.19851039525
155	55232	61	576.99593513035
155	58388	62	590.83208727856
vector 305 TestScenario.uninfected[60].veinsmobility acceleration ETV
vector 306 TestScenario.uninfected[60].veinsmobility co2emission ETV
vector 307 TestScenario.uninfected[61].veinsmobility speed ETV
vector 308 TestScenario.uninfected[62].veinsmobility posx ETV
vector 309 TestScenario.uninfected[62].veinsmobility posy ETV
vector 310 TestScenario.uninfected[63].veinsmobility posx ETV
vector 311 TestScenario.uninfected[63].veinsmobility posy ETV
vector 312 TestScenario.uninfected[61].veinsmobility acceleration ETV
vector 313 TestScenario.uninfected[61].veinsmobility co2emission ETV
148	7066	31	4.3380418105188
148	7598	32	5.732156072286
148	8638	33	5.9512367968251
148	9665	34	7.8652703368443
148	10576	35	8.0442031776726
148	12260	36	2.3413498772659
148	12974	37	2.0188357945509
148	13766	38	1.7400787589224
148	14348	39	2.027513838115
148	14938	40	2.1680083922844
148	16033	41	2.1207874425359
148	17205	42	2.1485055807318
148	18310	43	0.973
148	19964	44	0.973
148	20936	45	0.973
148	22848	46	0.973
148	24192	47	0.973
148	26126	48	3.8173170406658
148	28218	49	4.5317512165241
148	29575	50	4.6159428438769
148	32961	51	6.4490302971705
148	34263	52	7.5226395592996
148	36980	53	8.7380869853613
148	38664	54	1.7402779596011
148	41033	55	2.1092801274639
148	44326	56	1.905948931255
148	46426	57	2.2286734580101
148	48350	58	2.1144778007857
148	51114	59	1.7999655347887
148	52997	60	2.2797142993209
148	55232	61	1.6420979039224
148	58388	62	2.1215207005
148	60064	63	2.1906243985889
148	63681	64	1.772737436727
147	7066	31	2.0616765541304
147	7598	32	2.1586972981412
147	8638	33	1.8023923606169
147	9665	34	2.0925740783894
147	10576	35	1.8183960298076
147	12260	36	0.09504656524097
147	12974	37	-0.0015005785739053
147	13766	38	-0.08298105903901
147	14348	39	0.003525556835811
147	14938	40	0.044358466072008
147	16033	41	0.029227769358549
147	17205	42	0.036333124043885
147	18310	43	-3.0349322613791
147	19964	44	-3.1549221925415
147	20936	45	-2.683487498265
147	22848	46	-2.1252970213005
147	24192	47	-1.1310242128008
147	26126	48	2.4593969439529
147	28218	49	2.0512783061527
147	29575	50	1.6208924950141
147	32961	51	2.0027977793175
147	34263	52	1.9865650057048
147	36980	53	2.0062257298292
147	38664	54	-0.083586557521484
147	41033	55	0.026529133867006
147	44326	56	-0.033566286764108
147	46426	57	0.061396563914604
147	48350	58	0.026337281251326
147	51114	59	-0.066012196938972
147	52997	60	0.075404864165467
147	55232	61	-0.11261340267724
147	58388	62	0.030798096898943
147	60064	63	0.049870020637755
147	63681	64	-0.073441779420246
144	5682	30	3.8256240094134
144	7066	31	5.8873005635438
144	7598	32	8.045997861685
144	8638	33	9.8483902223019
144	9665	34	11.940964300691
144	10576	35	13.759360330499
144	12260	36	13.85440689574
144	12974	37	13.852906317166
144	13766	38	13.769925258127
144	14348	39	13.773450814963
144	14938	40	13.817809281035
144	16033	41	13.847037050393
144	17205	42	13.883370174437
144	18310	43	10.848437913058
144	19964	44	7.6935157205166
144	20936	45	5.0100282222516
144	22848	46	2.8847312009512
144	24192	47	1.7537069881504
144	26126	48	4.2131039321033
144	28218	49	6.264382238256
144	29575	50	7.8852747332701
144	32961	51	9.8880725125875
144	34263	52	11.874637518292
144	36980	53	13.880863248121
144	38664	54	13.7972766906
144	41033	55	13.823805824467
144	44326	56	13.790239537703
144	46426	57	13.851636101617
144	48350	58	13.877973382869
144	51114	59	13.81196118593
144	52997	60	13.887366050095
144	55232	61	13.774752647418
144	58388	62	13.805550744317
144	60064	63	13.855420764955
144	63681	64	13.781978985535
136	5360	29	626.6
136	5682	30	626.6
136	7066	31	626.6
136	7598	32	626.6
136	8638	33	626.6
136	9665	34	626.6
136	10576	35	626.6
136	12260	36	626.6
136	12974	37	626.6
136	13766	38	626.6
136	14348	39	626.6
136	14938	40	626.6
136	16033	41	626.6
136	17205	42	626.6
136	18310	43	626.6
136	19964	44	626.6
136	20936	45	626.6
136	22848	46	626.6
136	24192	47	626.6
136	26126	48	626.6
136	28218	49	626.36943216569
136	29575	50	624.47697505231
136	32961	51	617.74922833887
136	34263	52	608.74131544565
136	36980	53	597.73721836071
136	38664	54	584.76556143549
136	41033	55	570.96123640778
136	44326	56	557.12822218447
136	46426	57	543.31371043691
136	48350	58	529.48333086694
136	51114	59	515.66693064238
136	52997	60	501.86484753819
136	55232	61	488.02864414212
136	58388	62	474.22411232829
136	60064	63	460.38879571192
136	63681	64	446.55499071455
135	5360	29	238.34780656187
135	5682	30	238.34780656187
135	7066	31	241.33642415611
135	7598	32	246.27539142698
135	8638	33	253.36332050108
135	9665	34	262.37097358347
135	10576	35	273.31360360385
135	12260	36	286.25040595976
135	12974	37	300.09386767397
135	13766	38	313.90838501024
135	14348	39	327.70667830717
135	14938	40	341.53217209169
135	16033	41	355.35704705053
135	17205	42	369.18684100899
135	18310	43	383.01048566642
135	19964	44	395.34049214229
135	20936	45	404.39219022105
135	22848	46	410.55239139694
135	24192	47	414.29657146509
135	26126	48	416.29391481864
135	28218	49	419.41397484014
135	29575	50	424.27170824615
135	32961	51	426.6
135	34263	52	426.6
135	36980	53	426.6
135	38664	54	426.6
135	41033	55	426.6
135	44326	56	426.6
135	46426	57	426.6
135	48350	58	426.6
135	51114	59	426.6
135	52997	60	426.6
135	55232	61	426.6
135	58388	62	426.6
135	60064	63	426.6
135	63681	64	426.6
88	387	19	4.1540271589091
88	647	20	5.9062362597305
88	1181	21	6.2333754593159
88	1772	22	7.5045152126853
88	2368	23	8.0187521693765
88	3114	24	1.9820624461207
88	3326	25	1.6755186526635
88	4014	26	2.3635747412339
88	4549	27	2.0143524695409
88	4879	28	1.9003223174155
88	5360	29	1.8830179922341
88	5682	30	2.356204080748
88	7066	31	1.8197976979609
88	7598	32	2.0663333089893
88	8638	33	1.8965886445134
88	9665	34	2.0308115952268
88	10576	35	2.1517842655716
88	12260	36	1.8211062170264
88	12974	37	2.3599953401569
88	13766	38	2.0116867155552
88	14348	39	1.9473026318755
88	14938	40	1.9768862405585
88	16033	41	2.0623035960997
88	17205	42	2.0923932281021
88	18310	43	2.0149961010992
88	19964	44	1.7036888245556
88	20936	45	0.973
88	22848	46	0.973
88	24192	47	0.973
88	26126	48	0.973
88	28218	49	1.5694901705542
88	29575	50	5.3144832345869
88	32961	51	5.0194623242555
88	34263	52	6.3227983979005
88	36980	53	8.0573176685972
88	38664	54	6.2871542600483
88	41033	55	2.1597342879671
88	44326	56	1.8715903095142
88	46426	57	2.4193772813145
88	48350	58	1.7916942408088
88	51114	59	2.2690833753691
88	52997	60	1.6782223230988
88	55232	61	2.1250670978267
88	58388	62	1.1168560755206
88	60064	63	0.973
88	63681	64	6.4681538306917
87	387	19	1.8451712691993
87	647	20	2.1704131241306
87	1181	21	1.8534996337281
87	1772	22	1.9377188198338
87	2368	23	1.7906232079498
87	3114	24	-0.013060124092735
87	3326	25	-0.10241381924599
87	4014	26	0.10111141787376
87	4549	27	-0.0032635279907858
87	4879	28	-0.036376600884832
87	5360	29	-0.040459399956744
87	5682	30	0.098226922554895
87	7066	31	-0.060465240122284
87	7598	32	0.013103501412552
87	8638	33	-0.036766871211585
87	9665	34	0.0034728734428064
87	10576	35	0.038546769276726
87	12260	36	-0.059012974093202
87	12974	37	0.099423398757352
87	13766	38	-0.0045175496535368
87	14348	39	-0.023099391695578
87	14938	40	-0.013835718322079
87	16033	41	0.011407815809362
87	17205	42	0.019788395303767
87	18310	43	-0.0032572409976268
87	19964	44	-0.094156918032095
87	20936	45	-0.45181553127925
87	22848	46	-3.3360559603958
87	24192	47	-2.947474514252
87	26126	48	-2.6197484363696
87	28218	49	0.20364888067761
87	29575	50	2.2998823654721
87	32961	51	1.660504672804
87	34263	52	1.8337066835165
87	36980	53	2.0513781717024
87	38664	54	1.2883009551489
87	41033	55	0.042350964059587
87	44326	56	-0.043093580775894
87	46426	57	0.1175004935381
87	48350	58	-0.068434651033021
87	51114	59	0.072422016665804
87	52997	60	-0.10185392934829
87	55232	61	0.03166188897565
87	58388	62	-0.26837405864744
87	60064	63	-1.0163075278146
87	63681	64	1.3306076507801
84	173	18	4.2870338742172
84	387	19	6.1322051434165
84	647	20	8.3026182675471
84	1181	21	10.156117901275
84	1772	22	12.093836721109
84	2368	23	13.884459929059
84	3114	24	13.871399804966
84	3326	25	13.76898598572
84	4014	26	13.870097403594
84	4549	27	13.866833875603
84	4879	28	13.830457274718
84	5360	29	13.789997874761
84	5682	30	13.888224797316
84	7066	31	13.827759557194
84	7598	32	13.840863058607
84	8638	33	13.804096187395
84	9665	34	13.807569060838
84	10576	35	13.846115830115
84	12260	36	13.787102856021
84	12974	37	13.886526254779
84	13766	38	13.882008705125
84	14348	39	13.85890931343
84	14938	40	13.845073595108
84	16033	41	13.856481410917
84	17205	42	13.876269806221
84	18310	43	13.873012565223
84	19964	44	13.778855647191
84	20936	45	13.327040115912
84	22848	46	9.9909841555159
84	24192	47	7.0435096412639
84	26126	48	4.4237612048943
84	28218	49	4.6274100855719
84	29575	50	6.927292451044
84	32961	51	8.587797123848
84	34263	52	10.421503807364
84	36980	53	12.472881979067
84	38664	54	13.761182934216
84	41033	55	13.803533898275
84	44326	56	13.760440317499
84	46426	57	13.877940811038
84	48350	58	13.809506160005
84	51114	59	13.88192817667
84	52997	60	13.780074247322
84	55232	61	13.811736136298
84	58388	62	13.54336207765
84	60064	63	12.527054549836
84	63681	64	13.857662200616
76	78	17	23.4
76	173	18	23.4
76	387	19	23.4
76	647	20	23.4
76	1181	21	23.4
76	1772	22	23.4
76	2368	23	23.4
76	3114	24	23.4
76	3326	25	23.4
76	4014	26	23.4
76	4549	27	23.4
76	4879	28	23.4
76	5360	29	23.4
76	5682	30	23.4
76	7066	31	23.4
76	7598	32	23.4
76	8638	33	23.4
76	9665	34	23.4
76	10576	35	23.4
76	12260	36	23.4
76	12974	37	23.4
76	13766	38	23.4
76	14348	39	23.4
76	14938	40	23.4
76	16033	41	23.4
76	17205	42	23.4
76	18310	43	23.4
76	19964	44	23.4
76	20936	45	23.4
76	22848	46	23.4
76	24192	47	23.4
76	26126	48	23.4
76	28218	49	23.4
76	29575	50	23.924621047401
76	32961	51	27.814597251613
76	34263	52	35.504911000952
76	36980	53	45.130820264184
76	38664	54	56.711346241459
76	41033	55	70.178242731766
76	44326	56	83.993638729945
76	46426	57	97.818120008991
76	48350	58	111.65054280869
76	51114	59	125.47589506165
76	52997	60	139.31282169006
76	55232	61	153.16217164685
76	58388	62	166.99373150268
76	60064	63	180.77912771091
76	63681	64	193.3318645822
75	78	17	611.61734681937
75	173	18	611.61734681937
75	387	19	608.34547727598
75	647	20	603.04459053166
75	1181	21	595.71134401908
75	1772	22	586.30561669239
75	2368	23	575.04365687014
75	3114	24	561.87765941857
75	3326	25	548.06768903087
75	4014	26	534.2527537677
75	4549	27	520.44461141758
75	4879	28	506.61720151997
75	5360	29	492.80051949987
75	5682	30	478.98538918967
75	7066	31	465.15517951265
75	7598	32	451.32892580577
75	8638	33	437.49850653181
75	9665	34	423.6865800751
75	10576	35	409.85835736973
75	12260	36	396.03503504236
75	12974	37	382.20881206092
75	13766	38	368.3892917885
75	14348	39	354.55856144825
75	14938	40	340.73640497511
75	16033	41	326.9164361774
75	17205	42	313.09116064026
75	18310	43	299.24903432527
75	19964	44	285.42630003638
75	20936	45	271.59938232806
75	22848	46	257.83784450517
75	24192	47	246.32998880058
75	26126	48	237.967098979
75	28218	49	232.42031362985
75	29575	50	228.52765266819
75	32961	51	224.27124164903
75	34263	52	223.4
75	36980	53	223.4
75	38664	54	223.4
75	41033	55	223.4
75	44326	56	223.4
75	46426	57	223.4
75	48350	58	223.4
75	51114	59	223.4
75	52997	60	223.4
75	55232	61	223.4
75	58388	62	223.4
75	60064	63	223.4
75	63681	64	223.4
vector 314 TestScenario.exploited[64].veinsmobility posx ETV
vector 315 TestScenario.exploited[64].veinsmobility posy ETV
vector 316 TestScenario.uninfected[62].veinsmobility speed ETV
vector 317 TestScenario.uninfected[63].veinsmobility speed ETV
vector 318 TestScenario.uninfected[65].veinsmobility posx ETV
vector 319 TestScenario.uninfected[65].veinsmobility posy ETV
vector 320 TestScenario.uninfected[62].veinsmobility acceleration ETV
vector 321 TestScenario.uninfected[62].veinsmobility co2emission ETV
vector 322 TestScenario.uninfected[63].veinsmobility acceleration ETV
vector 323 TestScenario.uninfected[63].veinsmobility co2emission ETV
vector 324 TestScenario.exploited[64].veinsmobility speed ETV
vector 325 TestScenario.uninfected[66].veinsmobility posx ETV
vector 326 TestScenario.uninfected[66].veinsmobility posy ETV
vector 327 TestScenario.exploited[64].veinsmobility acceleration ETV
vector 328 TestScenario.exploited[64].veinsmobility co2emission ETV
vector 329 TestScenario.uninfected[65].veinsmobility speed ETV
vector 330 TestScenario.uninfected[67].veinsmobility posx ETV
vector 331 TestScenario.uninfected[67].veinsmobility posy ETV
vector 332 TestScenario.uninfected[65].veinsmobility acceleration ETV
vector 333 TestScenario.uninfected[65].veinsmobility co2emission ETV
vector 334 TestScenario.uninfected[66].veinsmobility speed ETV
vector 335 TestScenario.uninfected[68].veinsmobility posx ETV
vector 336 TestScenario.uninfected[68].veinsmobility posy ETV
vector 337 TestScenario.uninfected[66].veinsmobility acceleration ETV
vector 338 TestScenario.uninfected[66].veinsmobility co2emission ETV
vector 339 TestScenario.uninfected[67].veinsmobility speed ETV
vector 340 TestScenario.exploited[69].veinsmobility posx ETV
vector 341 TestScenario.exploited[69].veinsmobility posy ETV
vector 342 TestScenario.uninfected[67].veinsmobility acceleration ETV
vector 343 TestScenario.uninfected[67].veinsmobility co2emission ETV
vector 344 TestScenario.uninfected[68].veinsmobility speed ETV
vector 345 TestScenario.uninfected[68].veinsmobility acceleration ETV
vector 346 TestScenario.uninfected[68].veinsmobility co2emission ETV
vector 347 TestScenario.exploited[69].veinsmobility speed ETV
vector 348 TestScenario.uninfected[70].veinsmobility posx ETV
vector 349 TestScenario.uninfected[70].veinsmobility posy ETV
vector 350 TestScenario.exploited[69].veinsmobility acceleration ETV
vector 351 TestScenario.exploited[69].veinsmobility co2emission ETV
198	16033	41	4.4616460216687
198	17205	42	5.6419384412865
198	18310	43	6.7883991784292
198	19964	44	6.9942589252907
198	20936	45	8.0538827684401
198	22848	46	1.7702448190319
198	24192	47	2.1499667965372
198	26126	48	2.1973636434456
198	28218	49	1.9226908152994
198	29575	50	1.7170593289798
198	32961	51	2.3397799842678
198	34263	52	1.591669494696
198	36980	53	0.973
198	38664	54	0.973
198	41033	55	0.973
198	44326	56	0.973
198	46426	57	5.0334634669952
198	48350	58	3.8575563859633
198	51114	59	3.7417784346984
198	52997	60	6.7142434371492
198	55232	61	7.473350571129
198	58388	62	6.1185478747845
198	60064	63	1.8692156649753
198	63681	64	2.0390607591891
198	66424	65	1.8870116420282
198	68084	66	2.2168927196605
198	69475	67	2.0593519675257
198	71370	68	1.9651314639539
198	73093	69	2.1151207196505
198	75676	70	1.7334638734966
198	78237	71	2.0837660074493
198	82775	72	2.1170236154429
197	16033	41	2.0316554019577
197	17205	42	2.0544935615221
197	18310	43	2.0482552041416
197	19964	44	1.7683313838858
197	20936	45	1.8041146004603
197	22848	46	-0.074426712018903
197	24192	47	0.038539436191787
197	26126	48	0.051018873951397
197	28218	49	-0.030236407448538
197	29575	50	-0.089704381919001
197	32961	51	0.09453508352628
197	34263	52	-0.12683145654767
197	36980	53	-3.2919123331916
197	38664	54	-3.1277893099697
197	41033	55	-2.6150660029994
197	44326	56	-0.24651645348358
197	46426	57	2.2232925984915
197	48350	58	1.2206641299285
197	51114	59	0.99800580151612
197	52997	60	1.9086881714757
197	55232	61	1.8296628243267
197	58388	62	1.2263529586047
197	60064	63	-0.045126288481988
197	63681	64	0.0057330289739177
197	66424	65	-0.038866948427167
197	68084	66	0.058467874554918
197	69475	67	0.010876856383401
197	71370	68	-0.016869342816062
197	73093	69	0.027254633796401
197	75676	70	-0.084989441244398
197	78237	71	0.01992991686333
197	82775	72	0.028994135453832
194	14938	40	4.1589409556698
194	16033	41	6.1905963576275
194	17205	42	8.2450899191496
194	18310	43	10.293345123291
194	19964	44	12.061676507177
194	20936	45	13.865791107637
194	22848	46	13.791364395618
194	24192	47	13.82990383181
194	26126	48	13.880922705762
194	28218	49	13.850686298313
194	29575	50	13.760981916394
194	32961	51	13.85551699992
194	34263	52	13.728685543373
194	36980	53	10.436773210181
194	38664	54	7.3089839002114
194	41033	55	4.693917897212
194	44326	56	4.4474014437284
194	46426	57	6.6706940422199
194	48350	58	7.8913581721485
194	51114	59	8.8893639736646
194	52997	60	10.79805214514
194	55232	61	12.627714969467
194	58388	62	13.854067928072
194	60064	63	13.80894163959
194	63681	64	13.814674668564
194	66424	65	13.775807720136
194	68084	66	13.834275594691
194	69475	67	13.845152451075
194	71370	68	13.828283108259
194	73093	69	13.855537742055
194	75676	70	13.770548300811
194	78237	71	13.790478217674
194	82775	72	13.819472353128
186	14348	39	426.6
186	14938	40	426.6
186	16033	41	426.6
186	17205	42	426.6
186	18310	43	426.6
186	19964	44	426.6
186	20936	45	426.6
186	22848	46	426.6
186	24192	47	426.6
186	26126	48	426.6
186	28218	49	426.6
186	29575	50	426.6
186	32961	51	426.6
186	34263	52	426.6
186	36980	53	426.6
186	38664	54	426.6
186	41033	55	426.6
186	44326	56	426.6
186	46426	57	426.6
186	48350	58	426.16290176962
186	51114	59	421.23860799026
186	52997	60	413.05421674112
186	55232	61	403.07972111728
186	58388	62	391.25562296295
186	60064	63	377.71027501821
186	63681	64	363.8669917416
186	66424	65	350.05680318183
186	68084	66	336.22095204838
186	69475	67	322.41195723639
186	71370	68	308.58842168283
186	73093	69	294.75208087567
186	75676	70	280.90523547062
186	78237	71	267.07819445837
186	82775	72	253.26636543209
185	14348	39	38.371657334534
185	14938	40	38.371657334534
185	16033	41	41.5672405402
185	17205	42	46.81699399232
185	18310	43	54.096193532578
185	19964	44	63.462521790039
185	20936	45	74.791060893466
185	22848	46	87.949234221447
185	24192	47	101.78161761613
185	26126	48	115.61449037281
185	28218	49	129.4422087322
185	29575	50	143.26192812882
185	32961	51	157.10811602695
185	34263	52	170.92691806844
185	36980	53	184.74668777741
185	38664	54	196.64862396019
185	41033	55	205.32351970372
185	44326	56	211.16243591734
185	46426	57	215.12087495735
185	48350	58	220.85968761263
185	51114	59	226.10877028711
185	52997	60	226.6
185	55232	61	226.6
185	58388	62	226.6
185	60064	63	226.6
185	63681	64	226.6
185	66424	65	226.6
185	68084	66	226.6
185	69475	67	226.6
185	71370	68	226.6
185	73093	69	226.6
185	75676	70	226.6
185	78237	71	226.6
185	82775	72	226.6
33	9	8	4.1707787383362
33	10	9	5.415033008706
33	11	10	6.5792952133712
33	12	11	8.076140285373
33	13	12	7.7903393408821
33	14	13	2.0688049146094
33	15	14	1.98554578524
33	16	15	2.0261897656441
33	37	16	2.1971352382966
33	78	17	1.934543658246
33	173	18	1.7892567893398
33	387	19	2.2577129031655
33	647	20	0.973
33	1181	21	0.973
33	1772	22	0.973
33	2368	23	0.973
33	3114	24	0.973
33	3326	25	1.253161181035
33	4014	26	3.8922534313236
33	4549	27	5.28465474804
33	4879	28	5.8100833331073
33	5360	29	7.0706444575652
33	5682	30	7.9583031381505
33	7066	31	3.8441286219347
33	7598	32	2.3522565979641
33	8638	33	1.9931417740022
33	9665	34	1.8931159041069
33	10576	35	2.1870550524219
33	12260	36	1.9861509741996
33	12974	37	2.0069882809314
33	13766	38	1.8206149073829
33	14348	39	2.1103636692676
33	14938	40	1.8848483321041
33	16033	41	2.0511528186408
33	17205	42	2.2812668776222
33	18310	43	1.7346002280573
33	19964	44	1.9919542382654
33	20936	45	2.0561911053551
33	22848	46	2.1593595333891
33	24192	47	1.8806073541939
33	26126	48	2.1273604580837
33	28218	49	2.1134861600993
33	29575	50	2.1319243085606
33	32961	51	1.921292397229
33	34263	52	1.8842870034953
33	36980	53	0.973
33	38664	54	0.973
33	41033	55	0.973
33	44326	56	0.973
33	46426	57	1.4506055853249
33	48350	58	4.7651079545262
33	51114	59	5.156035816605
33	52997	60	6.9363811970273
33	55232	61	8.0833055769656
33	58388	62	6.5186366317593
33	60064	63	2.1302716041406
33	63681	64	2.000372935958
33	66424	65	2.0809391400204
33	68084	66	1.8095645640936
33	69475	67	2.2402832810065
33	71370	68	1.6681640350669
33	73093	69	2.2580953731031
33	75676	70	1.9708024635473
33	78237	71	1.92256091061
33	82775	72	2.0352444669795
32	9	8	1.9499414177705
32	10	9	2.0353051653411
32	11	10	2.0429412387311
32	12	11	2.1357271100557
32	13	12	1.7327500628358
32	14	13	0.014134623438585
32	15	14	-0.010530715566128
32	16	15	0.0016219877847483
32	37	16	0.051189798829146
32	78	17	-0.026589488498868
32	173	18	-0.068390540471301
32	387	19	0.070185275266413
32	647	20	-3.1032479786118
32	1181	21	-3.1867743212126
32	1772	22	-2.6176231781872
32	2368	23	-0.76534799844844
32	3114	24	-0.53567660824002
32	3326	25	-0.040139820838813
32	4014	26	1.8907292721421
32	4549	27	2.0691660376475
32	4879	28	1.8405264286604
32	5360	29	1.9328688790486
32	5682	30	1.8829299094877
32	7066	31	0.55120088745375
32	7598	32	0.097893448313698
32	8638	33	-0.0092979439650662
32	9665	34	-0.038197977014351
32	10576	35	0.048424320854245
32	12260	36	-0.01135794310132
32	12974	37	-0.0049684153939591
32	13766	38	-0.059261201312765
32	14348	39	0.027042259578593
32	14938	40	-0.039589942106979
32	16033	41	0.010176089028828
32	17205	42	0.076662518016528
32	18310	43	-0.084884595824406
32	19964	44	-0.0071789719001387
32	20936	45	0.011804553586989
32	22848	46	0.041472601096611
32	24192	47	-0.041058736997655
32	26126	48	0.032160450762603
32	28218	49	0.027116295127197
32	29575	50	0.031608832196799
32	32961	51	-0.030516734954436
32	34263	52	-0.040496811820194
32	36980	53	-0.50524032340966
32	38664	54	-3.3964848116845
32	41033	55	-2.9536095713858
32	44326	56	-2.5571249099624
32	46426	57	0.10621061558664
32	48350	58	2.0862826245185
32	51114	59	1.7799476366369
32	52997	60	2.0739369299612
32	55232	61	2.0557229946554
32	58388	62	1.3476507321443
32	60064	63	0.031197001470719
32	63681	64	-0.0074314866098586
[...]
305	109074	79	2.4768124024034
306	60064	63	4.0366151987943
306	63681	64	4.8141451773011
306	66424	65	5.6971308999695
306	68084	66	6.713305401766
306	69475	67	8.2652383568703
306	71370	68	3.9792811007393
306	73093	69	2.0662619242977
306	75676	70	2.0003164164305
306	78237	71	2.153397290751
306	82775	72	1.9876343682747
306	86429	73	1.7803939432968
306	89425	74	2.1950932157427
306	91723	75	0.973
306	97027	76	0.973
306	100425	77	0.973
306	106422	78	0.973
306	109074	79	5.2548168588599
307	60064	63	4.0622486755598
307	63681	64	5.868094044984
307	66424	65	7.7328444106781
307	68084	66	9.7212441575221
307	69475	67	11.792877700433
307	71370	68	13.787266583142
307	73093	69	13.849957865446
307	75676	70	13.881703971939
307	78237	71	13.805873793508
307	82775	72	13.832233105553
307	86429	73	13.828400907225
307	89425	74	13.82184238486
307	91723	75	13.812045904291
307	97027	76	13.879876534464
307	100425	77	11.009031489659
307	106422	78	6.5097056538472
307	109074	79	6.4039191060513
308	63681	64	423.4
308	66424	65	423.4
308	68084	66	423.4
308	69475	67	423.4
308	71370	68	423.4
308	73093	69	423.4
308	75676	70	423.4
308	78237	71	423.4
308	82775	72	423.4
308	86429	73	423.4
308	89425	74	423.4
308	91723	75	423.4
308	97027	76	423.4
308	100425	77	423.4
308	106422	78	423.4
308	109074	79	423.4
309	63681	64	237.32595909113
309	66424	65	237.32595909113
309	68084	66	238.81771881629
309	69475	67	242.26179518881
309	71370	68	247.54971969635
309	73093	69	254.6172638212
309	75676	70	263.75310126638
309	78237	71	275.07932756896
309	82775	72	288.34542116052
309	86429	73	302.17671676601
309	89425	74	316.00375720199
309	91723	75	329.83243005103
309	97027	76	343.64433212083
309	100425	77	357.46676746569
309	106422	78	371.29689439792
309	109074	79	385.14257039876
310	63681	64	438.34242474616
310	66424	65	438.34242474616
310	68084	66	441.36885541116
310	69475	67	446.23876982647
310	71370	68	453.10992864035
310	73093	69	461.99635912215
310	75676	70	472.92684498864
310	78237	71	485.82190323221
310	82775	72	499.63139896505
310	86429	73	513.45466758472
310	89425	74	527.2822356196
310	91723	75	541.10726336674
310	97027	76	554.94857328054
310	100425	77	568.7699344651
310	106422	78	582.59628527339
310	109074	79	594.98066485401
311	63681	64	226.6
311	66424	65	226.6
311	68084	66	226.6
311	69475	67	226.6
311	71370	68	226.6
311	73093	69	226.6
311	75676	70	226.6
311	78237	71	226.6
311	82775	72	226.6
311	86429	73	226.6
311	89425	74	226.6
311	91723	75	226.6
311	97027	76	226.6
311	100425	77	226.6
311	106422	78	226.6
311	109074	79	226.6
312	63681	64	1.8058453694242
312	66424	65	1.8647503656941
312	68084	66	1.9883997468441
312	69475	67	2.0716335429111
312	71370	68	1.994388882709
312	73093	69	0.062691282304003
312	75676	70	0.031746106492356
312	78237	71	-0.07583017843077
312	82775	72	0.026359312045388
312	86429	73	-0.0038321983278724
312	89425	74	-0.0065585223655216
312	91723	75	-0.009796480569058
312	97027	76	0.067830630172976
312	100425	77	-2.8708450448047
312	106422	78	-4.4993258358119
312	109074	79	-0.10578654779587
313	63681	64	3.9655891799583
313	66424	65	5.0009260982427
313	68084	66	6.3222820806004
313	69475	67	7.7181507670021
313	71370	68	8.6440229231016
313	73093	69	2.2328000033303
313	75676	70	2.132975795289
313	78237	71	1.7667804867535
313	82775	72	2.1096210090797
313	86429	73	2.0085910798298
313	89425	74	1.9988517875504
313	91723	75	1.9870981801279
313	97027	76	2.2534806221881
313	100425	77	0.973
313	106422	78	0.973
313	109074	79	1.2799210546439
314	66424	65	626.6
314	68084	66	626.6
314	69475	67	626.6
314	71370	68	626.6
314	73093	69	626.6
314	75676	70	626.6
314	78237	71	626.6
314	82775	72	626.6
314	86429	73	626.6
314	89425	74	626.6
314	91723	75	626.6
314	97027	76	626.6
314	100425	77	626.6
314	106422	78	626.6
314	109074	79	626.6
315	66424	65	811.6362091083
315	68084	66	811.6362091083
315	69475	67	808.49699253786
315	71370	68	803.37970605877
315	73093	69	796.47750140177
315	75676	70	787.66504842156
315	78237	71	776.83632000734
315	82775	72	763.87800716266
315	86429	73	750.04046412665
315	89425	74	736.21517997552
315	91723	75	722.37947220748
315	97027	76	708.55727451091
315	100425	77	694.72230623235
315	106422	78	680.89683318129
315	109074	79	667.06492160111
316	66424	65	2.4566451162601
316	68084	66	4.3009189885657
316	69475	67	6.1334678606864
316	71370	68	7.8412710889045
316	73093	69	10.17141630663
316	75676	70	12.168238666147
316	78237	71	13.800587210089
316	82775	72	13.804874395658
316	86429	73	13.812263170208
316	89425	74	13.864718894826
316	91723	75	13.835113756505
316	97027	76	13.812178599434
316	100425	77	13.874271992536
316	106422	78	13.848350735882
316	109074	79	10.852306005304
317	66424	65	3.7978990778006
317	68084	66	5.765151959586
317	69475	67	7.8159434233518
317	71370	68	9.718258879623
317	73093	69	11.82455557959
317	75676	70	13.82750589992
317	78237	71	13.867684971169
317	82775	72	13.829823429845
317	86429	73	13.837931391634
317	89425	74	13.861585758312
317	91723	75	13.816090116194
317	97027	76	13.869465740316
317	100425	77	13.823798310228
317	106422	78	10.889733623414
317	109074	79	7.8413863112541
318	68084	66	826.6
318	69475	67	826.6
318	71370	68	826.6
318	73093	69	826.6
318	75676	70	826.6
318	78237	71	826.6
318	82775	72	826.6
318	86429	73	826.6
318	89425	74	826.6
318	91723	75	826.6
318	97027	76	826.6
318	100425	77	826.6
318	106422	78	826.6
318	109074	79	826.6
319	68084	66	611.64070531623
319	69475	67	611.64070531623
319	71370	68	608.40598976481
319	73093	69	603.05719424277
319	75676	70	595.65954882977
319	78237	71	586.32948698531
319	82775	72	574.89831604107
319	86429	73	561.64079370172
319	89425	74	547.82723361403
319	91723	75	534.00385931103
319	97027	76	520.19582126595
319	100425	77	506.36650281319
319	106422	78	492.53451645012
319	109074	79	478.7072189913
320	68084	66	1.8442738723056
320	69475	67	1.8325488721207
320	71370	68	1.7078032282181
320	73093	69	2.3301452177251
320	75676	70	1.9968223595177
320	78237	71	1.6323485439422
320	82775	72	0.0042871855688293
320	86429	73	0.0073887745500532
320	89425	74	0.052455724617467
320	91723	75	-0.029605138320475
320	97027	76	-0.022935157071334
320	100425	77	0.062093393101822
320	106422	78	-0.025921256653964
320	109074	79	-2.9960447305774
321	68084	66	3.2364552864813
321	69475	67	4.136004752359
321	71370	68	4.7601159466347
321	73093	69	7.4097918469538
321	75676	70	7.7192075834572
321	78237	71	7.4476454615119
321	82775	72	2.0332461980679
321	86429	73	2.0443251463196
321	89425	74	2.2003195730867
321	91723	75	1.9233308854189
321	97027	76	1.9433761108403
321	100425	77	2.233635934316
321	106422	78	1.9368726255733
321	109074	79	0.973
322	68084	66	1.9672528817854
322	69475	67	2.0507914637658
322	71370	68	1.9023154562712
322	73093	69	2.1062966999668
322	75676	70	2.00295032033
322	78237	71	0.040179071248916
322	82775	72	-0.037861541323364
322	86429	73	0.0081079617887738
322	89425	74	0.023654366678093
322	91723	75	-0.045495642118622
322	97027	76	0.053375624122564
322	100425	77	-0.045667430087924
322	106422	78	-2.9340646868145
322	109074	79	-3.0483473121595
323	68084	66	4.1391165680197
323	69475	67	5.3941067477973
323	71370	68	6.1190113013412
323	73093	69	7.8354989508799
323	75676	70	8.6959614082028
323	78237	71	2.159628250581
323	82775	72	1.8953144103744
323	86429	73	2.0493671831558
323	89425	74	2.1037469138851
323	91723	75	1.86863090238
323	97027	76	2.20393634225
323	100425	77	1.8687539109277
323	106422	78	0.973
323	109074	79	0.973
324	68084	66	4.035241967992
324	69475	67	5.9200965276063
324	71370	68	7.6796103079576
324	73093	69	9.6753365992248
324	75676	70	11.741953915344
324	78237	71	13.794794615873
324	82775	72	13.861555925007
324	86429	73	13.779369066623
324	89425	74	13.849910147002
324	91723	75	13.793975704436
324	97027	76	13.859798596143
324	100425	77	13.770803011311
324	106422	78	13.846511031671
324	109074	79	13.881763331904
325	69475	67	411.61456518507
325	71370	68	411.61456518507
325	73093	69	408.48184520693
325	75676	70	403.40088913954
325	78237	71	396.48700401962
325	82775	72	387.76653125583
325	86429	73	377.18637699002
325	89425	74	364.75372809723
325	91723	75	350.96536519421
325	97027	76	337.14623906282
325	100425	77	323.31278442837
325	106422	78	309.47879232437
325	109074	79	295.64676848424
326	69475	67	823.4
326	71370	68	823.4
326	73093	69	823.4
326	75676	70	823.4
326	78237	71	823.4
326	82775	72	823.4
326	86429	73	823.4
326	89425	74	823.4
326	91723	75	823.4
326	97027	76	823.4
326	100425	77	823.4
326	106422	78	823.4
326	109074	79	823.4
327	69475	67	1.8848545596143
327	71370	68	1.7595137803513
327	73093	69	1.9957262912672
327	75676	70	2.0666173161194
327	78237	71	2.0528407005285
327	82775	72	0.066761309134309
327	86429	73	-0.082186858383938
327	89425	74	0.070541080378462
327	91723	75	-0.055934442565777
327	97027	76	0.065822891707066
327	100425	77	-0.088995584831572
327	106422	78	0.075708020359743
327	109074	79	0.035252300233115
328	69475	67	4.103956218304
328	71370	68	4.7787878827019
328	73093	69	6.3139554576695
328	75676	70	7.6741205956374
328	78237	71	8.8427269326903
328	82775	72	2.2477482757956
328	86429	73	1.7434794653066
328	89425	74	2.2589957222144
328	91723	75	1.8319363646284
328	97027	76	2.2444071495729
328	100425	77	1.7201888864334
328	106422	78	2.2758354347811
328	109074	79	2.1447122716414
329	69475	67	4.1580023229309
329	71370	68	6.2859426523094
329	73093	69	8.3096153257159
329	75676	70	10.336476594331
329	78237	71	12.357385882309
329	82775	72	13.794555551861
329	86429	73	13.864938652555
329	89425	74	13.872961128962
329	91723	75	13.816288404358
329	97027	76	13.79551951577
329	100425	77	13.834949302559
329	106422	78	13.801357786159
329	109074	79	13.848007941341
330	71370	68	411.6238658766
330	73093	69	411.6238658766
330	75676	70	408.32721786367
330	78237	71	403.00355175073
330	82775	72	395.66112421404
330	86429	73	386.25393579337
330	89425	74	374.73931076814
330	91723	75	361.33454225605
330	97027	76	347.53155052322
330	100425	77	333.73393396961
330	106422	78	319.9098040119
330	109074	79	306.10126937839
331	71370	68	423.4
331	73093	69	423.4
331	75676	70	423.4
331	78237	71	423.4
331	82775	72	423.4
331	86429	73	423.4
331	89425	74	423.4
331	91723	75	423.4
331	97027	76	423.4
331	100425	77	423.4
331	106422	78	423.4
331	109074	79	423.4
332	71370	68	2.1279403293785
332	73093	69	2.0236726734065
332	75676	70	2.0268612686149
332	78237	71	2.0209092879784
332	82775	72	1.4371696695522
332	86429	73	0.070383100693579
332	89425	74	0.0080224764067669
332	91723	75	-0.056672724604141
332	97027	76	-0.020768888588062
332	100425	77	0.039429786789697
332	106422	78	-0.033591516399756
332	109074	79	0.046650155181997
333	71370	68	4.6598213771717
333	73093	69	5.6165025661143
333	75676	70	6.7597483729169
333	78237	71	7.8989729957338
333	82775	72	6.7957936339681
333	86429	73	2.2602480945678
333	89425	74	2.0527033392461
333	91723	75	1.8314321668538
333	97027	76	1.9489870720821
333	100425	77	2.1534932219067
333	106422	78	1.9068978584037
333	109074	79	2.1790376585533
334	71370	68	4.0034501923412
334	73093	69	5.8921630633204
334	75676	70	7.7499957819866
334	78237	71	9.5645994197392
334	82775	72	11.455572858863
334	86429	73	13.287154632735
334	89425	74	13.883192165489
334	91723	75	13.767696165598
334	97027	76	13.869900595413
334	100425	77	13.832093050538
334	106422	78	13.8113578642
334	109074	79	13.79445464367
335	73093	69	34.390372435956
335	75676	70	34.390372435956
335	78237	71	37.72897981476
335	82775	72	42.973472410705
335	86429	73	50.09424210834
335	89425	74	59.154318160734
335	91723	75	70.21523460846
335	97027	76	83.334180274292
335	100425	77	97.157933032782
335	106422	78	110.98482720076
335	109074	79	124.80888852773
336	73093	69	26.6
336	75676	70	26.6
336	78237	71	26.6
336	82775	72	26.6
336	86429	73	26.6
336	89425	74	26.6
336	91723	75	26.6
336	97027	76	26.6
336	100425	77	26.6
336	106422	78	26.6
336	109074	79	26.6
337	73093	69	1.8887128709792
337	75676	70	1.8578327186662
337	78237	71	1.8146036377526
337	82775	72	1.8909734391235
337	86429	73	1.831581773872
337	89425	74	0.59603753275466
337	91723	75	-0.11549599989084
337	97027	76	0.10220442981459
337	100425	77	-0.037807544874958
337	106422	78	-0.020735186338424
337	109074	79	-0.016903220529203
338	73093	69	4.0951287405908
338	75676	70	4.9968258232572
338	78237	71	5.8350119767802
338	82775	72	7.0220778783434
338	86429	73	7.8327761747105
338	89425	74	4.0211725369509
338	91723	75	1.6320136360352
338	97027	76	2.367203510689
338	100425	77	1.895703510308
338	106422	78	1.9506203490119
338	109074	79	1.9617361443994
339	73093	69	4.1836273158505
339	75676	70	6.1639776247786
339	78237	71	8.3046464246581
339	82775	72	10.307997063983
339	86429	73	12.419599480366
339	89425	74	13.798837319885
339	91723	75	13.820580573701
339	97027	76	13.832947443407
339	100425	77	13.789443024423
339	106422	78	13.804007963578
339	109074	79	13.767325057085
340	75676	70	226.6
340	78237	71	226.6
340	82775	72	226.6
340	86429	73	226.6
340	89425	74	226.6
340	91723	75	226.6
340	97027	76	226.6
340	100425	77	226.6
340	106422	78	226.6
340	109074	79	226.6
341	75676	70	211.64023213033
341	78237	71	211.64023213033
341	82775	72	208.5765503858
341	86429	73	203.51297975083
341	89425	74	196.35827531953
341	91723	75	187.23140536345
341	97027	76	176.18733210155
341	100425	77	163.09045365927
341	106422	78	149.26929701268
341	109074	79	135.43827021258
342	75676	70	1.9803503089282
342	78237	71	2.1406687998795
342	82775	72	2.0033506393246
342	86429	73	2.1116024163831
342	89425	74	1.379237839519
342	91723	75	0.021743253816384
342	97027	76	0.01236686970573
342	100425	77	-0.04350441898452
342	106422	78	0.014564939155242
342	109074	79	-0.036682906493079
343	75676	70	4.3708324619202
343	78237	71	5.8479028414955
343	82775	72	6.685216316957
343	86429	73	8.2063765347171
343	89425	74	6.6050556376653
343	91723	75	2.0929925332996
343	97027	76	2.0630507167743
343	100425	77	1.8728480191649
343	106422	78	2.067349428629
343	109074	79	1.8934825287912
344	75676	70	4.1735703527222
344	78237	71	6.0689844703248
344	82775	72	7.9350953014328
344	86429	73	9.9912455375765
344	89425	74	12.119018929914
344	91723	75	13.869714721905
344	97027	76	13.889944936424
344	100425	77	13.775536122613
344	106422	78	13.800755760504
344	109074	79	13.804903599904
345	78237	71	1.8954141176026
345	82775	72	1.8661108311079
345	86429	73	2.0561502361437
345	89425	74	2.1277733923378
345	91723	75	1.7506957919903
345	97027	76	0.020230214518961
345	100425	77	-0.11440881381044
345	106422	78	0.025219637891277
345	109074	79	0.0041478393995202
346	78237	71	4.1956984063929
346	82775	72	5.1076170167068
346	86429	73	6.6350981098612
346	89425	74	8.0736019827409
346	91723	75	7.8774293408287
346	97027	76	2.0953275766657
346	100425	77	1.6361950437671
346	106422	78	2.1024467606045
346	109074	79	2.0327855773213
347	78237	71	3.9172325728965
347	82775	72	6.0017444169746
347	86429	73	8.0276506138398
347	89425	74	9.942991526133
347	91723	75	11.990201409598
347	97027	76	13.813261175307
347	100425	77	13.771538722054
347	106422	78	13.843722395389
347	109074	79	13.799473910215
348	82775	72	438.35455619017
348	86429	73	438.35455619017
348	89425	74	441.40585200022
348	91723	75	446.34902687763
348	97027	76	453.33065858475
348	100425	77	462.41243588672
348	106422	78	473.37709403436
348	109074	79	486.37814823831
349	82775	72	426.6
349	86429	73	426.6
349	89425	74	426.6
349	91723	75	426.6
349	97027	76	426.6
349	100425	77	426.6
349	106422	78	426.6
349	109074	79	426.6
350	82775	72	2.0845118440781
350	86429	73	2.0259061968653
350	89425	74	1.9153409122932
350	91723	75	2.047209883465
350	97027	76	1.823059765709
350	100425	77	-0.041722453252879
350	106422	78	0.072183673335241
350	109074	79	-0.04424848517403
351	82775	72	4.4345758623996
351	86429	73	5.4644913581912
351	89425	74	6.2701145162635
351	91723	75	7.763343879024
351	97027	76	8.0887892011538
351	100425	77	1.8771439915013
351	106422	78	2.2637434785177
351	109074	79	1.8712812026608
352	86429	73	226.6
352	89425	74	226.6
352	91723	75	226.6
352	97027	76	226.6
352	100425	77	226.6
352	106422	78	226.6
352	109074	79	226.6
353	86429	73	212.4525795239
353	89425	74	212.4525795239
353	91723	75	210.36878240139
353	97027	76	206.3568669753
353	100425	77	200.35134386051
353	106422	78	192.27561579407
353	109074	79	182.21019898031
354	86429	73	411.63516335749
354	89425	74	411.63516335749
354	91723	75	408.34434325378
354	97027	76	403.08696660194
354	100425	77	395.92577906604
354	106422	78	386.81226677324
354	109074	79	375.79295921665
355	86429	73	423.4
355	89425	74	423.4
355	91723	75	423.4
355	97027	76	423.4
355	100425	77	423.4
355	106422	78	423.4
355	109074	79	423.4
356	86429	73	3.861036727981
356	89425	74	5.927079918837
356	91723	75	8.0161003985264
356	97027	76	9.8876081395809
356	100425	77	11.895524320596
356	106422	78	13.859153961036
356	109074	79	13.762468294199
357	89425	74	23.4
357	91723	75	23.4
357	97027	76	23.4
357	100425	77	23.4
357	106422	78	23.4
357	109074	79	23.4
358	89425	74	638.38132526921
358	91723	75	638.38132526921
358	97027	76	641.59401121283
358	100425	77	646.94398038673
358	106422	78	654.31139883717
358	109074	79	663.68064529611
359	89425	74	2.066043190856
359	91723	75	2.0890204796894
359	97027	76	1.8715077410545
359	100425	77	2.0079161810153
359	106422	78	1.9636296404402
359	109074	79	-0.096685666837731
360	89425	74	4.3663478105964
360	91723	75	5.580018107398
360	97027	76	6.135918359823
360	100425	77	7.5956746102154
360	106422	78	8.5831125264143
360	109074	79	1.6940217008783
361	89425	74	2.9785839998789
361	91723	75	4.9316217417267
361	97027	76	6.9647010767015
361	100425	77	8.9814525223777
361	106422	78	10.84295193667
361	109074	79	12.845439519793
362	89425	74	4.1655521295262
362	91723	75	6.1773339828379
362	97027	76	8.0735418767384
362	100425	77	10.005248850889
362	106422	78	11.887405101452
362	109074	79	13.86538908401
363	91723	75	811.62648125538
363	97027	76	811.62648125538
363	100425	77	808.42944771369
363	106422	78	803.31266310106
363	109074	79	796.1724679018
364	91723	75	223.4
364	97027	76	223.4
364	100425	77	223.4
364	106422	78	223.4
364	109074	79	223.4
365	91723	75	1.9530377418478
365	97027	76	2.0330793349748
365	100425	77	2.0167514456762
365	106422	78	1.8614994142926
365	109074	79	2.0024875831231
366	91723	75	3.6802075461656
366	97027	76	4.8896955501346
366	100425	77	5.9755130990768
366	106422	78	6.6152085766778
366	109074	79	8.1246699046181
367	91723	75	2.0117818533117
367	97027	76	1.8962078939006
367	100425	77	1.9317069741501
367	106422	78	1.882156250563
367	109074	79	1.9779839825588
368	91723	75	4.4247855490859
368	97027	76	5.2375785029484
368	100425	77	6.3430349908145
368	106422	78	7.2307506246233
368	109074	79	8.6346619166348
369	91723	75	4.1235921329075
369	97027	76	6.3214851253737
369	100425	77	8.2073057774921
369	106422	78	10.304358837949
369	109074	79	12.140715065708
370	97027	76	426.6
370	100425	77	426.6
370	106422	78	426.6
370	109074	79	426.6
371	97027	76	811.82967483622
371	100425	77	811.82967483622
371	106422	78	808.93829388493
371	109074	79	804.13406792428
372	97027	76	2.1978929924662
372	100425	77	1.8858206521184
372	106422	78	2.0970530604571
372	109074	79	1.8363562277588
373	97027	76	4.7867260719343
373	100425	77	5.2870705738405
373	106422	78	6.9158731012001
373	109074	79	7.2339978487733
374	97027	76	4.1057321482126
374	100425	77	5.9078271818251
374	106422	78	8.0474953093307
374	109074	79	9.9885059660135
375	100425	77	34.381765990388
375	106422	78	34.381765990388
375	109074	79	37.462100091471
376	100425	77	826.6
376	106422	78	826.6
376	109074	79	826.6
377	100425	77	1.8020950336126
377	106422	78	2.1396681275056
377	109074	79	1.9410106566828
378	100425	77	3.979840187016
378	106422	78	5.6961281656262
378	109074	79	6.3563651943709
379	100425	77	3.6976594725211
379	106422	78	5.6983081838635
379	109074	79	7.6785220706609
380	106422	78	411.62717811037
380	109074	79	411.62717811037
381	106422	78	623.4
381	109074	79	623.4
382	106422	78	2.0006487113424
382	109074	79	1.9802138867974
383	106422	78	4.1494544947309
383	109074	79	5.1866669465606
384	106422	78	3.954930337821
384	109074	79	5.8500556864797
385	109074	79	811.64555081703
386	109074	79	423.4
387	109074	79	1.8951253486588
388	109074	79	4.0825695225859
389	109074	79	4.1589468862189

