version 2
run Default-0-20200720-14:56:29-36748
attr configname Default
attr datetime 20200720-14:56:29
attr experiment Default
attr inifile omnetpp.ini
attr iterationvars ""
attr iterationvarsf ""
attr measurement ""
attr network sim1.src.TestScenario
attr processid 36748
attr repetition 0
attr replication #0
attr resultdir results
attr runnumber 0
attr seedset 0
param *.playgroundSizeX 1000m
param *.playgroundSizeY 1000m
param *.playgroundSizeZ 50m
param *.manager.moduleType "\"exploited=org.car2x.veins.nodes.Car *=org.car2x.veins.nodes.Car\""
param *.manager.moduleName "\"exploited=exploited *=uninfected\""
param *.manager.updateInterval 1s
param *.manager.host "\"localhost\""
param *.manager.port 9999
param *.manager.autoShutdown true
param *.manager.launchConfig "xmldoc(\"demo.launchd.xml\")"
param *.connectionManager.sendDirect true
param *.connectionManager.maxInterfDist 300m
param *.connectionManager.drawMaxIntfDist false
param *.**.nic.mac1609_4.useServiceChannel false
param *.**.nic.mac1609_4.txPower 20mW
param *.**.nic.mac1609_4.bitrate 6Mbps
param *.**.nic.phy80211p.sensitivity -89dBm
param *.**.nic.phy80211p.useThermalNoise true
param *.**.nic.phy80211p.thermalNoise -110dBm
param *.**.nic.phy80211p.decider "xmldoc(\"config.xml\")"
param *.**.nic.phy80211p.analogueModels "xmldoc(\"config.xml\")"
param *.**.nic.phy80211p.usePropagationDelay true
param *.**.nic.phy80211p.antenna "xmldoc(\"antenna.xml\", \"/root/Antenna[@id='monopole']\")"
param *.uninfected[*].applType "\"sim1.src.Uninfected\""
param *.uninfected[*].appl.dataPriority 2
param *.uninfected[*].appl.headerLength "80 bit"
param *.uninfected[*].appl.sendBeacons false
param *.uninfected[*].appl.dataOnSch false
param *.uninfected[*].appl.beaconInterval 1s
param *.uninfected[*].veinsmobilityType.debug true
param *.uninfected[*].veinsmobility.x 0
param *.uninfected[*].veinsmobility.y 0
param *.uninfected[*].veinsmobility.z 1.895
param *.uninfected[*0].veinsmobility.accidentCount 1
param *.uninfected[*0].veinsmobility.accidentStart 75s
param *.uninfected[*0].veinsmobility.accidentDuration 50s
param *.exploited[*].applType "\"sim1.src.Exploited\""
param *.exploited[*].appl.dataPriority 2
param *.exploited[*].appl.headerLength "80 bit"
param *.exploited[*].appl.sendBeacons false
param *.exploited[*].appl.dataOnSch false
param *.exploited[*].appl.beaconInterval 1s
param *.exploited[*].veinsmobilityType.debug true
param *.exploited[*].veinsmobility.x 0
param *.exploited[*].veinsmobility.y 0
param *.exploited[*].veinsmobility.z 1.895
param *.exploited[*0].veinsmobility.accidentCount 1
param *.exploited[*0].veinsmobility.accidentStart 75s
param *.exploited[*0].veinsmobility.accidentDuration 50s

scalar TestScenario.uninfected[0].appl generatedWSMs 0
scalar TestScenario.uninfected[0].appl receivedWSMs 0
scalar TestScenario.uninfected[0].appl generatedBSMs 16
scalar TestScenario.uninfected[0].appl receivedBSMs 2
scalar TestScenario.uninfected[0].appl generatedWSAs 0
scalar TestScenario.uninfected[0].appl receivedWSAs 0
scalar TestScenario.uninfected[0].nic.phy80211p busyTime 1.3e-005
scalar TestScenario.uninfected[0].nic.mac1609_4 ReceivedUnicastPackets 0
scalar TestScenario.uninfected[0].nic.mac1609_4 ReceivedBroadcasts 2
scalar TestScenario.uninfected[0].nic.mac1609_4 SentPackets 16
scalar TestScenario.uninfected[0].nic.mac1609_4 SentAcknowledgements 0
scalar TestScenario.uninfected[0].nic.mac1609_4 SNIRLostPackets 0
scalar TestScenario.uninfected[0].nic.mac1609_4 RXTXLostPackets 6
scalar TestScenario.uninfected[0].nic.mac1609_4 TotalLostPackets 6
scalar TestScenario.uninfected[0].nic.mac1609_4 DroppedPacketsInMac 0
scalar TestScenario.uninfected[0].nic.mac1609_4 TooLittleTime 0
scalar TestScenario.uninfected[0].nic.mac1609_4 TimesIntoBackoff 16
scalar TestScenario.uninfected[0].nic.mac1609_4 SlotsBackoff 27
scalar TestScenario.uninfected[0].nic.mac1609_4 NumInternalContention 0
scalar TestScenario.uninfected[0].nic.mac1609_4 totalBusyTime 0.001888
scalar TestScenario.uninfected[0].veinsmobility startTime 1
scalar TestScenario.uninfected[0].veinsmobility totalTime 15
scalar TestScenario.uninfected[0].veinsmobility stopTime 17
scalar TestScenario.uninfected[0].veinsmobility minSpeed 3.722822103166
scalar TestScenario.uninfected[0].veinsmobility maxSpeed 13.864000451695
scalar TestScenario.uninfected[0].veinsmobility totalDistance 171.58045891983
scalar TestScenario.uninfected[0].veinsmobility totalCO2Emission 50.474118156533
scalar TestScenario.uninfected[2].appl generatedWSMs 0
scalar TestScenario.uninfected[2].appl receivedWSMs 0
scalar TestScenario.uninfected[2].appl generatedBSMs 16
scalar TestScenario.uninfected[2].appl receivedBSMs 9
scalar TestScenario.uninfected[2].appl generatedWSAs 0
scalar TestScenario.uninfected[2].appl receivedWSAs 0
scalar TestScenario.uninfected[2].nic.phy80211p busyTime 7.15e-005
scalar TestScenario.uninfected[2].nic.mac1609_4 ReceivedUnicastPackets 0
scalar TestScenario.uninfected[2].nic.mac1609_4 ReceivedBroadcasts 9
scalar TestScenario.uninfected[2].nic.mac1609_4 SentPackets 16
scalar TestScenario.uninfected[2].nic.mac1609_4 SentAcknowledgements 0
scalar TestScenario.uninfected[2].nic.mac1609_4 SNIRLostPackets 2
scalar TestScenario.uninfected[2].nic.mac1609_4 RXTXLostPackets 26
scalar TestScenario.uninfected[2].nic.mac1609_4 TotalLostPackets 28
scalar TestScenario.uninfected[2].nic.mac1609_4 DroppedPacketsInMac 0
scalar TestScenario.uninfected[2].nic.mac1609_4 TooLittleTime 0
scalar TestScenario.uninfected[2].nic.mac1609_4 TimesIntoBackoff 16
scalar TestScenario.uninfected[2].nic.mac1609_4 SlotsBackoff 25
scalar TestScenario.uninfected[2].nic.mac1609_4 NumInternalContention 0
scalar TestScenario.uninfected[2].nic.mac1609_4 totalBusyTime 0.002720266923
scalar TestScenario.uninfected[2].veinsmobility startTime 3
scalar TestScenario.uninfected[2].veinsmobility totalTime 15
scalar TestScenario.uninfected[2].veinsmobility stopTime 19
scalar TestScenario.uninfected[2].veinsmobility minSpeed 3.9817542820289
scalar TestScenario.uninfected[2].veinsmobility maxSpeed 13.884849982031
scalar TestScenario.uninfected[2].veinsmobility totalDistance 172.29676972169
scalar TestScenario.uninfected[2].veinsmobility totalCO2Emission 50.208377241879
scalar TestScenario.uninfected[1].appl generatedWSMs 1
scalar TestScenario.uninfected[1].appl receivedWSMs 0
scalar TestScenario.uninfected[1].appl generatedBSMs 33
scalar TestScenario.uninfected[1].appl receivedBSMs 15
scalar TestScenario.uninfected[1].appl generatedWSAs 0
scalar TestScenario.uninfected[1].appl receivedWSAs 0
scalar TestScenario.uninfected[1].nic.phy80211p busyTime 8.5090909090909e-005
scalar TestScenario.uninfected[1].nic.mac1609_4 ReceivedUnicastPackets 0
scalar TestScenario.uninfected[1].nic.mac1609_4 ReceivedBroadcasts 15
scalar TestScenario.uninfected[1].nic.mac1609_4 SentPackets 34
scalar TestScenario.uninfected[1].nic.mac1609_4 SentAcknowledgements 0
scalar TestScenario.uninfected[1].nic.mac1609_4 SNIRLostPackets 12
scalar TestScenario.uninfected[1].nic.mac1609_4 RXTXLostPackets 45
scalar TestScenario.uninfected[1].nic.mac1609_4 TotalLostPackets 57
scalar TestScenario.uninfected[1].nic.mac1609_4 DroppedPacketsInMac 0
scalar TestScenario.uninfected[1].nic.mac1609_4 TooLittleTime 0
scalar TestScenario.uninfected[1].nic.mac1609_4 TimesIntoBackoff 34
scalar TestScenario.uninfected[1].nic.mac1609_4 SlotsBackoff 52
scalar TestScenario.uninfected[1].nic.mac1609_4 NumInternalContention 0
scalar TestScenario.uninfected[1].nic.mac1609_4 totalBusyTime 0.005882041602
scalar TestScenario.uninfected[1].veinsmobility startTime 2
scalar TestScenario.uninfected[1].veinsmobility totalTime 32
scalar TestScenario.uninfected[1].veinsmobility stopTime 35
scalar TestScenario.uninfected[1].veinsmobility minSpeed 3.805675440561
scalar TestScenario.uninfected[1].veinsmobility maxSpeed 13.884055320274
scalar TestScenario.uninfected[1].veinsmobility totalDistance 363.2303024847
scalar TestScenario.uninfected[1].veinsmobility totalCO2Emission 103.00771166145
scalar TestScenario.uninfected[23].appl generatedWSMs 0
scalar TestScenario.uninfected[23].appl receivedWSMs 0
scalar TestScenario.uninfected[23].appl generatedBSMs 16
scalar TestScenario.uninfected[23].appl receivedBSMs 9
scalar TestScenario.uninfected[23].appl generatedWSAs 0
scalar TestScenario.uninfected[23].appl receivedWSAs 0
scalar TestScenario.uninfected[23].nic.phy80211p busyTime 0.0003735
scalar TestScenario.uninfected[23].nic.mac1609_4 ReceivedUnicastPackets 0
scalar TestScenario.uninfected[23].nic.mac1609_4 ReceivedBroadcasts 9
scalar TestScenario.uninfected[23].nic.mac1609_4 SentPackets 16
scalar TestScenario.uninfected[23].nic.mac1609_4 SentAcknowledgements 0
scalar TestScenario.uninfected[23].nic.mac1609_4 SNIRLostPackets 45
scalar TestScenario.uninfected[23].nic.mac1609_4 RXTXLostPackets 85
scalar TestScenario.uninfected[23].nic.mac1609_4 TotalLostPackets 130
scalar TestScenario.uninfected[23].nic.mac1609_4 DroppedPacketsInMac 0
scalar TestScenario.uninfected[23].nic.mac1609_4 TooLittleTime 0
scalar TestScenario.uninfected[23].nic.mac1609_4 TimesIntoBackoff 16
scalar TestScenario.uninfected[23].nic.mac1609_4 SlotsBackoff 24
scalar TestScenario.uninfected[23].nic.mac1609_4 NumInternalContention 0
scalar TestScenario.uninfected[23].nic.mac1609_4 totalBusyTime 0.003888
scalar TestScenario.uninfected[23].veinsmobility startTime 24
scalar TestScenario.uninfected[23].veinsmobility totalTime 15
scalar TestScenario.uninfected[23].veinsmobility stopTime 40
scalar TestScenario.uninfected[23].veinsmobility minSpeed 4.1158313905864
scalar TestScenario.uninfected[23].veinsmobility maxSpeed 13.889639776004
scalar TestScenario.uninfected[23].veinsmobility totalDistance 172.54183512435
scalar TestScenario.uninfected[23].veinsmobility totalCO2Emission 49.816922927737
scalar TestScenario.uninfected[10].appl generatedWSMs 1
scalar TestScenario.uninfected[10].appl receivedWSMs 0
scalar TestScenario.uninfected[10].appl generatedBSMs 30
scalar TestScenario.uninfected[10].appl receivedBSMs 14
scalar TestScenario.uninfected[10].appl generatedWSAs 0
scalar TestScenario.uninfected[10].appl receivedWSAs 0
scalar TestScenario.uninfected[10].nic.phy80211p busyTime 0.0003431710148222
scalar TestScenario.uninfected[10].nic.mac1609_4 ReceivedUnicastPackets 0
scalar TestScenario.uninfected[10].nic.mac1609_4 ReceivedBroadcasts 14
scalar TestScenario.uninfected[10].nic.mac1609_4 SentPackets 31
scalar TestScenario.uninfected[10].nic.mac1609_4 SentAcknowledgements 0
scalar TestScenario.uninfected[10].nic.mac1609_4 SNIRLostPackets 78
scalar TestScenario.uninfected[10].nic.mac1609_4 RXTXLostPackets 149
scalar TestScenario.uninfected[10].nic.mac1609_4 TotalLostPackets 227
scalar TestScenario.uninfected[10].nic.mac1609_4 DroppedPacketsInMac 0
scalar TestScenario.uninfected[10].nic.mac1609_4 TooLittleTime 0
scalar TestScenario.uninfected[10].nic.mac1609_4 TimesIntoBackoff 31
scalar TestScenario.uninfected[10].nic.mac1609_4 SlotsBackoff 47
scalar TestScenario.uninfected[10].nic.mac1609_4 NumInternalContention 0
scalar TestScenario.uninfected[10].nic.mac1609_4 totalBusyTime 0.007071045933
scalar TestScenario.uninfected[10].veinsmobility startTime 11
scalar TestScenario.uninfected[10].veinsmobility totalTime 29
scalar TestScenario.uninfected[10].veinsmobility stopTime 40.000118221395
scalar TestScenario.uninfected[10].veinsmobility minSpeed 3.876872182942
scalar TestScenario.uninfected[10].veinsmobility maxSpeed 13.86851549631
scalar TestScenario.uninfected[10].veinsmobility totalDistance 318.8541623691
scalar TestScenario.uninfected[10].veinsmobility totalCO2Emission 96.059164151476
scalar TestScenario.uninfected[11].appl generatedWSMs 1
scalar TestScenario.uninfected[11].appl receivedWSMs 0
scalar TestScenario.uninfected[11].appl generatedBSMs 29
scalar TestScenario.uninfected[11].appl receivedBSMs 13
scalar TestScenario.uninfected[11].appl generatedWSAs 0
scalar TestScenario.uninfected[11].appl receivedWSAs 0
scalar TestScenario.uninfected[11].nic.phy80211p busyTime 0.00026085604147267
scalar TestScenario.uninfected[11].nic.mac1609_4 ReceivedUnicastPackets 0
scalar TestScenario.uninfected[11].nic.mac1609_4 ReceivedBroadcasts 13
scalar TestScenario.uninfected[11].nic.mac1609_4 SentPackets 30
scalar TestScenario.uninfected[11].nic.mac1609_4 SentAcknowledgements 0
scalar TestScenario.uninfected[11].nic.mac1609_4 SNIRLostPackets 55
scalar TestScenario.uninfected[11].nic.mac1609_4 RXTXLostPackets 123
scalar TestScenario.uninfected[11].nic.mac1609_4 TotalLostPackets 178
scalar TestScenario.uninfected[11].nic.mac1609_4 DroppedPacketsInMac 0
scalar TestScenario.uninfected[11].nic.mac1609_4 TooLittleTime 0
scalar TestScenario.uninfected[11].nic.mac1609_4 TimesIntoBackoff 30
scalar TestScenario.uninfected[11].nic.mac1609_4 SlotsBackoff 44
scalar TestScenario.uninfected[11].nic.mac1609_4 NumInternalContention 0
scalar TestScenario.uninfected[11].nic.mac1609_4 totalBusyTime 0.005878270567
scalar TestScenario.uninfected[11].veinsmobility startTime 12
scalar TestScenario.uninfected[11].veinsmobility totalTime 28
scalar TestScenario.uninfected[11].veinsmobility stopTime 40.000118221395
scalar TestScenario.uninfected[11].veinsmobility minSpeed 3.65
scalar TestScenario.uninfected[11].veinsmobility maxSpeed 13.888934111441
scalar TestScenario.uninfected[11].veinsmobility totalDistance 283.92825045118
scalar TestScenario.uninfected[11].veinsmobility totalCO2Emission 92.183545090209
scalar TestScenario.uninfected[12].appl generatedWSMs 0
scalar TestScenario.uninfected[12].appl receivedWSMs 0
scalar TestScenario.uninfected[12].appl generatedBSMs 28
scalar TestScenario.uninfected[12].appl receivedBSMs 19
scalar TestScenario.uninfected[12].appl generatedWSAs 0
scalar TestScenario.uninfected[12].appl receivedWSAs 0
scalar TestScenario.uninfected[12].nic.phy80211p busyTime 0.00038103536864693
scalar TestScenario.uninfected[12].nic.mac1609_4 ReceivedUnicastPackets 0
scalar TestScenario.uninfected[12].nic.mac1609_4 ReceivedBroadcasts 19
scalar TestScenario.uninfected[12].nic.mac1609_4 SentPackets 27
scalar TestScenario.uninfected[12].nic.mac1609_4 SentAcknowledgements 0
scalar TestScenario.uninfected[12].nic.mac1609_4 SNIRLostPackets 72
scalar TestScenario.uninfected[12].nic.mac1609_4 RXTXLostPackets 103
scalar TestScenario.uninfected[12].nic.mac1609_4 TotalLostPackets 175
scalar TestScenario.uninfected[12].nic.mac1609_4 DroppedPacketsInMac 0
scalar TestScenario.uninfected[12].nic.mac1609_4 TooLittleTime 0
scalar TestScenario.uninfected[12].nic.mac1609_4 TimesIntoBackoff 27
scalar TestScenario.uninfected[12].nic.mac1609_4 SlotsBackoff 28
scalar TestScenario.uninfected[12].nic.mac1609_4 NumInternalContention 0
scalar TestScenario.uninfected[12].nic.mac1609_4 totalBusyTime 0.006475044627
scalar TestScenario.uninfected[12].veinsmobility startTime 13
scalar TestScenario.uninfected[12].veinsmobility totalTime 27
scalar TestScenario.uninfected[12].veinsmobility stopTime 40.000118221395
scalar TestScenario.uninfected[12].veinsmobility minSpeed 3.9614284594792
scalar TestScenario.uninfected[12].veinsmobility maxSpeed 13.885565712757
scalar TestScenario.uninfected[12].veinsmobility totalDistance 338.83433930659
scalar TestScenario.uninfected[12].veinsmobility totalCO2Emission 74.238090673277
scalar TestScenario.uninfected[13].appl generatedWSMs 0
scalar TestScenario.uninfected[13].appl receivedWSMs 1
scalar TestScenario.uninfected[13].appl generatedBSMs 27
scalar TestScenario.uninfected[13].appl receivedBSMs 12
scalar TestScenario.uninfected[13].appl generatedWSAs 0
scalar TestScenario.uninfected[13].appl receivedWSAs 0
scalar TestScenario.uninfected[13].nic.phy80211p busyTime 0.00011692254527898
scalar TestScenario.uninfected[13].nic.mac1609_4 ReceivedUnicastPackets 0
scalar TestScenario.uninfected[13].nic.mac1609_4 ReceivedBroadcasts 13
scalar TestScenario.uninfected[13].nic.mac1609_4 SentPackets 27
scalar TestScenario.uninfected[13].nic.mac1609_4 SentAcknowledgements 0
scalar TestScenario.uninfected[13].nic.mac1609_4 SNIRLostPackets 15
scalar TestScenario.uninfected[13].nic.mac1609_4 RXTXLostPackets 42
scalar TestScenario.uninfected[13].nic.mac1609_4 TotalLostPackets 57
scalar TestScenario.uninfected[13].nic.mac1609_4 DroppedPacketsInMac 0
scalar TestScenario.uninfected[13].nic.mac1609_4 TooLittleTime 0
scalar TestScenario.uninfected[13].nic.mac1609_4 TimesIntoBackoff 27
scalar TestScenario.uninfected[13].nic.mac1609_4 SlotsBackoff 34
scalar TestScenario.uninfected[13].nic.mac1609_4 NumInternalContention 0
scalar TestScenario.uninfected[13].nic.mac1609_4 totalBusyTime 0.005043
scalar TestScenario.uninfected[13].veinsmobility startTime 14
scalar TestScenario.uninfected[13].veinsmobility totalTime 26
scalar TestScenario.uninfected[13].veinsmobility stopTime 40.000118221395
scalar TestScenario.uninfected[13].veinsmobility minSpeed 3.8004325452788
scalar TestScenario.uninfected[13].veinsmobility maxSpeed 13.876337689499
scalar TestScenario.uninfected[13].veinsmobility totalDistance 322.57083839472
scalar TestScenario.uninfected[13].veinsmobility totalCO2Emission 72.336771564201
scalar TestScenario.uninfected[14].appl generatedWSMs 1
scalar TestScenario.uninfected[14].appl receivedWSMs 0
scalar TestScenario.uninfected[14].appl generatedBSMs 26
scalar TestScenario.uninfected[14].appl receivedBSMs 13
scalar TestScenario.uninfected[14].appl generatedWSAs 0
scalar TestScenario.uninfected[14].appl receivedWSAs 0
scalar TestScenario.uninfected[14].nic.phy80211p busyTime 0.00016639921312212
scalar TestScenario.uninfected[14].nic.mac1609_4 ReceivedUnicastPackets 0
scalar TestScenario.uninfected[14].nic.mac1609_4 ReceivedBroadcasts 13
scalar TestScenario.uninfected[14].nic.mac1609_4 SentPackets 27
scalar TestScenario.uninfected[14].nic.mac1609_4 SentAcknowledgements 0
scalar TestScenario.uninfected[14].nic.mac1609_4 SNIRLostPackets 27
scalar TestScenario.uninfected[14].nic.mac1609_4 RXTXLostPackets 75
scalar TestScenario.uninfected[14].nic.mac1609_4 TotalLostPackets 102
scalar TestScenario.uninfected[14].nic.mac1609_4 DroppedPacketsInMac 0
scalar TestScenario.uninfected[14].nic.mac1609_4 TooLittleTime 0
scalar TestScenario.uninfected[14].nic.mac1609_4 TimesIntoBackoff 27
scalar TestScenario.uninfected[14].nic.mac1609_4 SlotsBackoff 35
scalar TestScenario.uninfected[14].nic.mac1609_4 NumInternalContention 0
scalar TestScenario.uninfected[14].nic.mac1609_4 totalBusyTime 0.005459082758
scalar TestScenario.uninfected[14].veinsmobility startTime 15
scalar TestScenario.uninfected[14].veinsmobility totalTime 25
scalar TestScenario.uninfected[14].veinsmobility stopTime 40.000118221395
scalar TestScenario.uninfected[14].veinsmobility minSpeed 3.564096187395
scalar TestScenario.uninfected[14].veinsmobility maxSpeed 13.879562971592
scalar TestScenario.uninfected[14].veinsmobility totalDistance 238.04681804205
scalar TestScenario.uninfected[14].veinsmobility totalCO2Emission 86.065232449426
scalar TestScenario.uninfected[15].appl generatedWSMs 3
scalar TestScenario.uninfected[15].appl receivedWSMs 0
scalar TestScenario.uninfected[15].appl generatedBSMs 25
scalar TestScenario.uninfected[15].appl receivedBSMs 15
scalar TestScenario.uninfected[15].appl generatedWSAs 0
scalar TestScenario.uninfected[15].appl receivedWSAs 0
scalar TestScenario.uninfected[15].nic.phy80211p busyTime 0.00044166449107532
scalar TestScenario.uninfected[15].nic.mac1609_4 ReceivedUnicastPackets 0
scalar TestScenario.uninfected[15].nic.mac1609_4 ReceivedBroadcasts 15
scalar TestScenario.uninfected[15].nic.mac1609_4 SentPackets 27
scalar TestScenario.uninfected[15].nic.mac1609_4 SentAcknowledgements 0
scalar TestScenario.uninfected[15].nic.mac1609_4 SNIRLostPackets 78
scalar TestScenario.uninfected[15].nic.mac1609_4 RXTXLostPackets 149
scalar TestScenario.uninfected[15].nic.mac1609_4 TotalLostPackets 227
scalar TestScenario.uninfected[15].nic.mac1609_4 DroppedPacketsInMac 0
scalar TestScenario.uninfected[15].nic.mac1609_4 TooLittleTime 0
scalar TestScenario.uninfected[15].nic.mac1609_4 TimesIntoBackoff 27
scalar TestScenario.uninfected[15].nic.mac1609_4 SlotsBackoff 39
scalar TestScenario.uninfected[15].nic.mac1609_4 NumInternalContention 0
scalar TestScenario.uninfected[15].nic.mac1609_4 totalBusyTime 0.00654711815
scalar TestScenario.uninfected[15].veinsmobility startTime 16
scalar TestScenario.uninfected[15].veinsmobility totalTime 24
scalar TestScenario.uninfected[15].veinsmobility stopTime 40.000118221395
scalar TestScenario.uninfected[15].veinsmobility minSpeed 0.51805880690731
scalar TestScenario.uninfected[15].veinsmobility maxSpeed 13.864879281602
scalar TestScenario.uninfected[15].veinsmobility totalDistance 208.46609897169
scalar TestScenario.uninfected[15].veinsmobility totalCO2Emission 75.977473744907
scalar TestScenario.uninfected[16].appl generatedWSMs 1
scalar TestScenario.uninfected[16].appl receivedWSMs 0
scalar TestScenario.uninfected[16].appl generatedBSMs 24
scalar TestScenario.uninfected[16].appl receivedBSMs 15
scalar TestScenario.uninfected[16].appl generatedWSAs 0
scalar TestScenario.uninfected[16].appl receivedWSAs 0
scalar TestScenario.uninfected[16].nic.phy80211p busyTime 0.00016834696077337
scalar TestScenario.uninfected[16].nic.mac1609_4 ReceivedUnicastPackets 0
scalar TestScenario.uninfected[16].nic.mac1609_4 ReceivedBroadcasts 15
scalar TestScenario.uninfected[16].nic.mac1609_4 SentPackets 25
scalar TestScenario.uninfected[16].nic.mac1609_4 SentAcknowledgements 0
scalar TestScenario.uninfected[16].nic.mac1609_4 SNIRLostPackets 21
scalar TestScenario.uninfected[16].nic.mac1609_4 RXTXLostPackets 56
scalar TestScenario.uninfected[16].nic.mac1609_4 TotalLostPackets 77
scalar TestScenario.uninfected[16].nic.mac1609_4 DroppedPacketsInMac 0
scalar TestScenario.uninfected[16].nic.mac1609_4 TooLittleTime 0
scalar TestScenario.uninfected[16].nic.mac1609_4 TimesIntoBackoff 25
scalar TestScenario.uninfected[16].nic.mac1609_4 SlotsBackoff 33
scalar TestScenario.uninfected[16].nic.mac1609_4 NumInternalContention 0
scalar TestScenario.uninfected[16].nic.mac1609_4 totalBusyTime 0.004937
scalar TestScenario.uninfected[16].veinsmobility startTime 17
scalar TestScenario.uninfected[16].veinsmobility totalTime 23
scalar TestScenario.uninfected[16].veinsmobility stopTime 40.000118221395
scalar TestScenario.uninfected[16].veinsmobility minSpeed 4.2870338742172
scalar TestScenario.uninfected[16].veinsmobility maxSpeed 13.888224797316
scalar TestScenario.uninfected[16].veinsmobility totalDistance 284.74985703027
scalar TestScenario.uninfected[16].veinsmobility totalCO2Emission 65.895337300327
scalar TestScenario.uninfected[17].appl generatedWSMs 1
scalar TestScenario.uninfected[17].appl receivedWSMs 0
scalar TestScenario.uninfected[17].appl generatedBSMs 23
scalar TestScenario.uninfected[17].appl receivedBSMs 10
scalar TestScenario.uninfected[17].appl generatedWSAs 0
scalar TestScenario.uninfected[17].appl receivedWSAs 0
scalar TestScenario.uninfected[17].nic.phy80211p busyTime 0.00034727086114338
scalar TestScenario.uninfected[17].nic.mac1609_4 ReceivedUnicastPackets 0
scalar TestScenario.uninfected[17].nic.mac1609_4 ReceivedBroadcasts 10
scalar TestScenario.uninfected[17].nic.mac1609_4 SentPackets 24
scalar TestScenario.uninfected[17].nic.mac1609_4 SentAcknowledgements 0
scalar TestScenario.uninfected[17].nic.mac1609_4 SNIRLostPackets 60
scalar TestScenario.uninfected[17].nic.mac1609_4 RXTXLostPackets 123
scalar TestScenario.uninfected[17].nic.mac1609_4 TotalLostPackets 183
scalar TestScenario.uninfected[17].nic.mac1609_4 DroppedPacketsInMac 0
scalar TestScenario.uninfected[17].nic.mac1609_4 TooLittleTime 0
scalar TestScenario.uninfected[17].nic.mac1609_4 TimesIntoBackoff 24
scalar TestScenario.uninfected[17].nic.mac1609_4 SlotsBackoff 37
scalar TestScenario.uninfected[17].nic.mac1609_4 NumInternalContention 0
scalar TestScenario.uninfected[17].nic.mac1609_4 totalBusyTime 0.005376
scalar TestScenario.uninfected[17].veinsmobility startTime 18
scalar TestScenario.uninfected[17].veinsmobility totalTime 22
scalar TestScenario.uninfected[17].veinsmobility stopTime 40.000118221395
scalar TestScenario.uninfected[17].veinsmobility minSpeed 3.9475584061126
scalar TestScenario.uninfected[17].veinsmobility maxSpeed 13.884520370378
scalar TestScenario.uninfected[17].veinsmobility totalDistance 215.7932887843
scalar TestScenario.uninfected[17].veinsmobility totalCO2Emission 76.538109287469
scalar TestScenario.uninfected[18].appl generatedWSMs 0
scalar TestScenario.uninfected[18].appl receivedWSMs 0
scalar TestScenario.uninfected[18].appl generatedBSMs 22
scalar TestScenario.uninfected[18].appl receivedBSMs 9
scalar TestScenario.uninfected[18].appl generatedWSAs 0
scalar TestScenario.uninfected[18].appl receivedWSAs 0
scalar TestScenario.uninfected[18].nic.phy80211p busyTime 0.00029828403506882
scalar TestScenario.uninfected[18].nic.mac1609_4 ReceivedUnicastPackets 0
scalar TestScenario.uninfected[18].nic.mac1609_4 ReceivedBroadcasts 9
scalar TestScenario.uninfected[18].nic.mac1609_4 SentPackets 22
scalar TestScenario.uninfected[18].nic.mac1609_4 SentAcknowledgements 0
scalar TestScenario.uninfected[18].nic.mac1609_4 SNIRLostPackets 50
scalar TestScenario.uninfected[18].nic.mac1609_4 RXTXLostPackets 75
scalar TestScenario.uninfected[18].nic.mac1609_4 TotalLostPackets 125
scalar TestScenario.uninfected[18].nic.mac1609_4 DroppedPacketsInMac 0
scalar TestScenario.uninfected[18].nic.mac1609_4 TooLittleTime 0
scalar TestScenario.uninfected[18].nic.mac1609_4 TimesIntoBackoff 22
scalar TestScenario.uninfected[18].nic.mac1609_4 SlotsBackoff 35
scalar TestScenario.uninfected[18].nic.mac1609_4 NumInternalContention 0
scalar TestScenario.uninfected[18].nic.mac1609_4 totalBusyTime 0.004726281389
scalar TestScenario.uninfected[18].veinsmobility startTime 19
scalar TestScenario.uninfected[18].veinsmobility totalTime 21
scalar TestScenario.uninfected[18].veinsmobility stopTime 40.000118221395
scalar TestScenario.uninfected[18].veinsmobility minSpeed 3.9395033562485
scalar TestScenario.uninfected[18].veinsmobility maxSpeed 13.867747633765
scalar TestScenario.uninfected[18].veinsmobility totalDistance 225.0553388654
scalar TestScenario.uninfected[18].veinsmobility totalCO2Emission 77.347929787161
scalar TestScenario.uninfected[19].appl generatedWSMs 1
scalar TestScenario.uninfected[19].appl receivedWSMs 1
scalar TestScenario.uninfected[19].appl generatedBSMs 21
scalar TestScenario.uninfected[19].appl receivedBSMs 4
scalar TestScenario.uninfected[19].appl generatedWSAs 0
scalar TestScenario.uninfected[19].appl receivedWSAs 0
scalar TestScenario.uninfected[19].nic.phy80211p busyTime 0.00022479867119937
scalar TestScenario.uninfected[19].nic.mac1609_4 ReceivedUnicastPackets 0
scalar TestScenario.uninfected[19].nic.mac1609_4 ReceivedBroadcasts 5
scalar TestScenario.uninfected[19].nic.mac1609_4 SentPackets 21
scalar TestScenario.uninfected[19].nic.mac1609_4 SentAcknowledgements 0
scalar TestScenario.uninfected[19].nic.mac1609_4 SNIRLostPackets 37
scalar TestScenario.uninfected[19].nic.mac1609_4 RXTXLostPackets 51
scalar TestScenario.uninfected[19].nic.mac1609_4 TotalLostPackets 88
scalar TestScenario.uninfected[19].nic.mac1609_4 DroppedPacketsInMac 0
scalar TestScenario.uninfected[19].nic.mac1609_4 TooLittleTime 0
scalar TestScenario.uninfected[19].nic.mac1609_4 TimesIntoBackoff 21
scalar TestScenario.uninfected[19].nic.mac1609_4 SlotsBackoff 36
scalar TestScenario.uninfected[19].nic.mac1609_4 NumInternalContention 0
scalar TestScenario.uninfected[19].nic.mac1609_4 totalBusyTime 0.004125
scalar TestScenario.uninfected[19].veinsmobility startTime 20
scalar TestScenario.uninfected[19].veinsmobility totalTime 20
scalar TestScenario.uninfected[19].veinsmobility stopTime 40.000118221395
scalar TestScenario.uninfected[19].veinsmobility minSpeed 4.1509726031868
scalar TestScenario.uninfected[19].veinsmobility maxSpeed 13.877742547421
scalar TestScenario.uninfected[19].veinsmobility totalDistance 212.39869963172
scalar TestScenario.uninfected[19].veinsmobility totalCO2Emission 66.885095930615
scalar TestScenario.uninfected[20].appl generatedWSMs 1
scalar TestScenario.uninfected[20].appl receivedWSMs 0
scalar TestScenario.uninfected[20].appl generatedBSMs 20
scalar TestScenario.uninfected[20].appl receivedBSMs 9
scalar TestScenario.uninfected[20].appl generatedWSAs 0
scalar TestScenario.uninfected[20].appl receivedWSAs 0
scalar TestScenario.uninfected[20].nic.phy80211p busyTime 0.00027073515754274
scalar TestScenario.uninfected[20].nic.mac1609_4 ReceivedUnicastPackets 0
scalar TestScenario.uninfected[20].nic.mac1609_4 ReceivedBroadcasts 9
scalar TestScenario.uninfected[20].nic.mac1609_4 SentPackets 20
scalar TestScenario.uninfected[20].nic.mac1609_4 SentAcknowledgements 0
scalar TestScenario.uninfected[20].nic.mac1609_4 SNIRLostPackets 36
scalar TestScenario.uninfected[20].nic.mac1609_4 RXTXLostPackets 45
scalar TestScenario.uninfected[20].nic.mac1609_4 TotalLostPackets 81
scalar TestScenario.uninfected[20].nic.mac1609_4 DroppedPacketsInMac 0
scalar TestScenario.uninfected[20].nic.mac1609_4 TooLittleTime 0
scalar TestScenario.uninfected[20].nic.mac1609_4 TimesIntoBackoff 20
scalar TestScenario.uninfected[20].nic.mac1609_4 SlotsBackoff 34
scalar TestScenario.uninfected[20].nic.mac1609_4 NumInternalContention 0
scalar TestScenario.uninfected[20].nic.mac1609_4 totalBusyTime 0.004436239594
scalar TestScenario.uninfected[20].veinsmobility startTime 21
scalar TestScenario.uninfected[20].veinsmobility totalTime 19
scalar TestScenario.uninfected[20].veinsmobility stopTime 40.000118221395
scalar TestScenario.uninfected[20].veinsmobility minSpeed 4.1823363179106
scalar TestScenario.uninfected[20].veinsmobility maxSpeed 13.886119018339
scalar TestScenario.uninfected[20].veinsmobility totalDistance 193.0622887158
scalar TestScenario.uninfected[20].veinsmobility totalCO2Emission 57.447677639301
scalar TestScenario.uninfected[21].appl generatedWSMs 1
scalar TestScenario.uninfected[21].appl receivedWSMs 0
scalar TestScenario.uninfected[21].appl generatedBSMs 19
scalar TestScenario.uninfected[21].appl receivedBSMs 12
scalar TestScenario.uninfected[21].appl generatedWSAs 0
scalar TestScenario.uninfected[21].appl receivedWSAs 0
scalar TestScenario.uninfected[21].nic.phy80211p busyTime 0.00033333114406262
scalar TestScenario.uninfected[21].nic.mac1609_4 ReceivedUnicastPackets 0
scalar TestScenario.uninfected[21].nic.mac1609_4 ReceivedBroadcasts 12
scalar TestScenario.uninfected[21].nic.mac1609_4 SentPackets 20
scalar TestScenario.uninfected[21].nic.mac1609_4 SentAcknowledgements 0
scalar TestScenario.uninfected[21].nic.mac1609_4 SNIRLostPackets 40
scalar TestScenario.uninfected[21].nic.mac1609_4 RXTXLostPackets 95
scalar TestScenario.uninfected[21].nic.mac1609_4 TotalLostPackets 135
scalar TestScenario.uninfected[21].nic.mac1609_4 DroppedPacketsInMac 0
scalar TestScenario.uninfected[21].nic.mac1609_4 TooLittleTime 0
scalar TestScenario.uninfected[21].nic.mac1609_4 TimesIntoBackoff 20
scalar TestScenario.uninfected[21].nic.mac1609_4 SlotsBackoff 33
scalar TestScenario.uninfected[21].nic.mac1609_4 NumInternalContention 0
scalar TestScenario.uninfected[21].nic.mac1609_4 totalBusyTime 0.004516
scalar TestScenario.uninfected[21].veinsmobility startTime 22
scalar TestScenario.uninfected[21].veinsmobility totalTime 18
scalar TestScenario.uninfected[21].veinsmobility stopTime 40.000118221395
scalar TestScenario.uninfected[21].veinsmobility minSpeed 4.1344470101443
scalar TestScenario.uninfected[21].veinsmobility maxSpeed 13.829307905487
scalar TestScenario.uninfected[21].veinsmobility totalDistance 181.73156152635
scalar TestScenario.uninfected[21].veinsmobility totalCO2Emission 54.697198243033
scalar TestScenario.uninfected[22].appl generatedWSMs 1
scalar TestScenario.uninfected[22].appl receivedWSMs 0
scalar TestScenario.uninfected[22].appl generatedBSMs 18
scalar TestScenario.uninfected[22].appl receivedBSMs 12
scalar TestScenario.uninfected[22].appl generatedWSAs 0
scalar TestScenario.uninfected[22].appl receivedWSAs 0
scalar TestScenario.uninfected[22].nic.phy80211p busyTime 0.00048752602141139
scalar TestScenario.uninfected[22].nic.mac1609_4 ReceivedUnicastPackets 0
scalar TestScenario.uninfected[22].nic.mac1609_4 ReceivedBroadcasts 12
scalar TestScenario.uninfected[22].nic.mac1609_4 SentPackets 18
scalar TestScenario.uninfected[22].nic.mac1609_4 SentAcknowledgements 0
scalar TestScenario.uninfected[22].nic.mac1609_4 SNIRLostPackets 64
scalar TestScenario.uninfected[22].nic.mac1609_4 RXTXLostPackets 126
scalar TestScenario.uninfected[22].nic.mac1609_4 TotalLostPackets 190
scalar TestScenario.uninfected[22].nic.mac1609_4 DroppedPacketsInMac 0
scalar TestScenario.uninfected[22].nic.mac1609_4 TooLittleTime 0
scalar TestScenario.uninfected[22].nic.mac1609_4 TimesIntoBackoff 17
scalar TestScenario.uninfected[22].nic.mac1609_4 SlotsBackoff 24
scalar TestScenario.uninfected[22].nic.mac1609_4 NumInternalContention 0
scalar TestScenario.uninfected[22].nic.mac1609_4 totalBusyTime 0.004849060738
scalar TestScenario.uninfected[22].veinsmobility startTime 23
scalar TestScenario.uninfected[22].veinsmobility totalTime 17
scalar TestScenario.uninfected[22].veinsmobility stopTime 40.000118221395
scalar TestScenario.uninfected[22].veinsmobility minSpeed 2.7105466664563
scalar TestScenario.uninfected[22].veinsmobility maxSpeed 13.862487124004
scalar TestScenario.uninfected[22].veinsmobility totalDistance 176.10748137586
scalar TestScenario.uninfected[22].veinsmobility totalCO2Emission 49.967225877106
scalar TestScenario.uninfected[24].appl generatedWSMs 0
scalar TestScenario.uninfected[24].appl receivedWSMs 0
scalar TestScenario.uninfected[24].appl generatedBSMs 16
scalar TestScenario.uninfected[24].appl receivedBSMs 10
scalar TestScenario.uninfected[24].appl generatedWSAs 0
scalar TestScenario.uninfected[24].appl receivedWSAs 0
scalar TestScenario.uninfected[24].nic.phy80211p busyTime 0.00016639868854099
scalar TestScenario.uninfected[24].nic.mac1609_4 ReceivedUnicastPackets 0
scalar TestScenario.uninfected[24].nic.mac1609_4 ReceivedBroadcasts 10
scalar TestScenario.uninfected[24].nic.mac1609_4 SentPackets 16
scalar TestScenario.uninfected[24].nic.mac1609_4 SentAcknowledgements 0
scalar TestScenario.uninfected[24].nic.mac1609_4 SNIRLostPackets 14
scalar TestScenario.uninfected[24].nic.mac1609_4 RXTXLostPackets 27
scalar TestScenario.uninfected[24].nic.mac1609_4 TotalLostPackets 41
scalar TestScenario.uninfected[24].nic.mac1609_4 DroppedPacketsInMac 0
scalar TestScenario.uninfected[24].nic.mac1609_4 TooLittleTime 0
scalar TestScenario.uninfected[24].nic.mac1609_4 TimesIntoBackoff 16
scalar TestScenario.uninfected[24].nic.mac1609_4 SlotsBackoff 12
scalar TestScenario.uninfected[24].nic.mac1609_4 NumInternalContention 0
scalar TestScenario.uninfected[24].nic.mac1609_4 totalBusyTime 0.00324
scalar TestScenario.uninfected[24].veinsmobility startTime 25
scalar TestScenario.uninfected[24].veinsmobility totalTime 15
scalar TestScenario.uninfected[24].veinsmobility stopTime 40.000118221395
scalar TestScenario.uninfected[24].veinsmobility minSpeed 4.121810317437
scalar TestScenario.uninfected[24].veinsmobility maxSpeed 13.886800110687
scalar TestScenario.uninfected[24].veinsmobility totalDistance 166.9242837333
scalar TestScenario.uninfected[24].veinsmobility totalCO2Emission 47.515976470949
scalar TestScenario.uninfected[25].appl generatedWSMs 0
scalar TestScenario.uninfected[25].appl receivedWSMs 1
scalar TestScenario.uninfected[25].appl generatedBSMs 15
scalar TestScenario.uninfected[25].appl receivedBSMs 6
scalar TestScenario.uninfected[25].appl generatedWSAs 0
scalar TestScenario.uninfected[25].appl receivedWSAs 0
scalar TestScenario.uninfected[25].nic.phy80211p busyTime 0.00017256997132409
scalar TestScenario.uninfected[25].nic.mac1609_4 ReceivedUnicastPackets 0
scalar TestScenario.uninfected[25].nic.mac1609_4 ReceivedBroadcasts 7
scalar TestScenario.uninfected[25].nic.mac1609_4 SentPackets 15
scalar TestScenario.uninfected[25].nic.mac1609_4 SentAcknowledgements 0
scalar TestScenario.uninfected[25].nic.mac1609_4 SNIRLostPackets 15
scalar TestScenario.uninfected[25].nic.mac1609_4 RXTXLostPackets 26
scalar TestScenario.uninfected[25].nic.mac1609_4 TotalLostPackets 41
scalar TestScenario.uninfected[25].nic.mac1609_4 DroppedPacketsInMac 0
scalar TestScenario.uninfected[25].nic.mac1609_4 TooLittleTime 0
scalar TestScenario.uninfected[25].nic.mac1609_4 TimesIntoBackoff 15
scalar TestScenario.uninfected[25].nic.mac1609_4 SlotsBackoff 26
scalar TestScenario.uninfected[25].nic.mac1609_4 NumInternalContention 0
scalar TestScenario.uninfected[25].nic.mac1609_4 totalBusyTime 0.003055
scalar TestScenario.uninfected[25].veinsmobility startTime 26
scalar TestScenario.uninfected[25].veinsmobility totalTime 14
scalar TestScenario.uninfected[25].veinsmobility stopTime 40.000118221395
scalar TestScenario.uninfected[25].veinsmobility minSpeed 3.9760906288211
scalar TestScenario.uninfected[25].veinsmobility maxSpeed 13.889774081798
scalar TestScenario.uninfected[25].veinsmobility totalDistance 157.76868039911
scalar TestScenario.uninfected[25].veinsmobility totalCO2Emission 47.907681279572
scalar TestScenario.uninfected[26].appl generatedWSMs 0
scalar TestScenario.uninfected[26].appl receivedWSMs 0
scalar TestScenario.uninfected[26].appl generatedBSMs 14
scalar TestScenario.uninfected[26].appl receivedBSMs 6
scalar TestScenario.uninfected[26].appl generatedWSAs 0
scalar TestScenario.uninfected[26].appl receivedWSAs 0
scalar TestScenario.uninfected[26].nic.phy80211p busyTime 0.00071568579927896
scalar TestScenario.uninfected[26].nic.mac1609_4 ReceivedUnicastPackets 0
scalar TestScenario.uninfected[26].nic.mac1609_4 ReceivedBroadcasts 6
scalar TestScenario.uninfected[26].nic.mac1609_4 SentPackets 13
scalar TestScenario.uninfected[26].nic.mac1609_4 SentAcknowledgements 0
scalar TestScenario.uninfected[26].nic.mac1609_4 SNIRLostPackets 79
scalar TestScenario.uninfected[26].nic.mac1609_4 RXTXLostPackets 64
scalar TestScenario.uninfected[26].nic.mac1609_4 TotalLostPackets 143
scalar TestScenario.uninfected[26].nic.mac1609_4 DroppedPacketsInMac 0
scalar TestScenario.uninfected[26].nic.mac1609_4 TooLittleTime 0
scalar TestScenario.uninfected[26].nic.mac1609_4 TimesIntoBackoff 13
scalar TestScenario.uninfected[26].nic.mac1609_4 SlotsBackoff 15
scalar TestScenario.uninfected[26].nic.mac1609_4 NumInternalContention 0
scalar TestScenario.uninfected[26].nic.mac1609_4 totalBusyTime 0.003781
scalar TestScenario.uninfected[26].veinsmobility startTime 27
scalar TestScenario.uninfected[26].veinsmobility totalTime 13
scalar TestScenario.uninfected[26].veinsmobility stopTime 40.000118221395
scalar TestScenario.uninfected[26].veinsmobility minSpeed 4.2827240551382
scalar TestScenario.uninfected[26].veinsmobility maxSpeed 13.868973644497
scalar TestScenario.uninfected[26].veinsmobility totalDistance 146.59106441898
scalar TestScenario.uninfected[26].veinsmobility totalCO2Emission 45.712639900654
scalar TestScenario.uninfected[27].appl generatedWSMs 0
scalar TestScenario.uninfected[27].appl receivedWSMs 0
scalar TestScenario.uninfected[27].appl generatedBSMs 13
scalar TestScenario.uninfected[27].appl receivedBSMs 8
scalar TestScenario.uninfected[27].appl generatedWSAs 0
scalar TestScenario.uninfected[27].appl receivedWSAs 0
scalar TestScenario.uninfected[27].nic.phy80211p busyTime 0.00046532874901551
scalar TestScenario.uninfected[27].nic.mac1609_4 ReceivedUnicastPackets 0
scalar TestScenario.uninfected[27].nic.mac1609_4 ReceivedBroadcasts 8
scalar TestScenario.uninfected[27].nic.mac1609_4 SentPackets 13
scalar TestScenario.uninfected[27].nic.mac1609_4 SentAcknowledgements 0
scalar TestScenario.uninfected[27].nic.mac1609_4 SNIRLostPackets 40
scalar TestScenario.uninfected[27].nic.mac1609_4 RXTXLostPackets 86
scalar TestScenario.uninfected[27].nic.mac1609_4 TotalLostPackets 126
scalar TestScenario.uninfected[27].nic.mac1609_4 DroppedPacketsInMac 0
scalar TestScenario.uninfected[27].nic.mac1609_4 TooLittleTime 0
scalar TestScenario.uninfected[27].nic.mac1609_4 TimesIntoBackoff 13
scalar TestScenario.uninfected[27].nic.mac1609_4 SlotsBackoff 16
scalar TestScenario.uninfected[27].nic.mac1609_4 NumInternalContention 0
scalar TestScenario.uninfected[27].nic.mac1609_4 totalBusyTime 0.003341
scalar TestScenario.uninfected[27].veinsmobility startTime 28
scalar TestScenario.uninfected[27].veinsmobility totalTime 12
scalar TestScenario.uninfected[27].veinsmobility stopTime 40.000118221395
scalar TestScenario.uninfected[27].veinsmobility minSpeed 3.8640796656667
scalar TestScenario.uninfected[27].veinsmobility maxSpeed 13.889380110847
scalar TestScenario.uninfected[27].veinsmobility totalDistance 129.83414498029
scalar TestScenario.uninfected[27].veinsmobility totalCO2Emission 43.863658875784
scalar TestScenario.uninfected[28].appl generatedWSMs 0
scalar TestScenario.uninfected[28].appl receivedWSMs 0
scalar TestScenario.uninfected[28].appl generatedBSMs 12
scalar TestScenario.uninfected[28].appl receivedBSMs 3
scalar TestScenario.uninfected[28].appl generatedWSAs 0
scalar TestScenario.uninfected[28].appl receivedWSAs 0
scalar TestScenario.uninfected[28].nic.phy80211p busyTime 0.00074617379875387
scalar TestScenario.uninfected[28].nic.mac1609_4 ReceivedUnicastPackets 0
scalar TestScenario.uninfected[28].nic.mac1609_4 ReceivedBroadcasts 3
scalar TestScenario.uninfected[28].nic.mac1609_4 SentPackets 12
scalar TestScenario.uninfected[28].nic.mac1609_4 SentAcknowledgements 0
scalar TestScenario.uninfected[28].nic.mac1609_4 SNIRLostPackets 69
scalar TestScenario.uninfected[28].nic.mac1609_4 RXTXLostPackets 72
scalar TestScenario.uninfected[28].nic.mac1609_4 TotalLostPackets 141
scalar TestScenario.uninfected[28].nic.mac1609_4 DroppedPacketsInMac 0
scalar TestScenario.uninfected[28].nic.mac1609_4 TooLittleTime 0
scalar TestScenario.uninfected[28].nic.mac1609_4 TimesIntoBackoff 12
scalar TestScenario.uninfected[28].nic.mac1609_4 SlotsBackoff 23
scalar TestScenario.uninfected[28].nic.mac1609_4 NumInternalContention 0
scalar TestScenario.uninfected[28].nic.mac1609_4 totalBusyTime 0.003132
scalar TestScenario.uninfected[28].veinsmobility startTime 29
scalar TestScenario.uninfected[28].veinsmobility totalTime 11
scalar TestScenario.uninfected[28].veinsmobility stopTime 40.000118221395
scalar TestScenario.uninfected[28].veinsmobility minSpeed 3.8256240094134
scalar TestScenario.uninfected[28].veinsmobility maxSpeed 13.842724142154
scalar TestScenario.uninfected[28].veinsmobility totalDistance 116.94724484866
scalar TestScenario.uninfected[28].veinsmobility totalCO2Emission 42.202605265256
scalar TestScenario.uninfected[29].appl generatedWSMs 0
scalar TestScenario.uninfected[29].appl receivedWSMs 0
scalar TestScenario.uninfected[29].appl generatedBSMs 11
scalar TestScenario.uninfected[29].appl receivedBSMs 8
scalar TestScenario.uninfected[29].appl generatedWSAs 0
scalar TestScenario.uninfected[29].appl receivedWSAs 0
scalar TestScenario.uninfected[29].nic.phy80211p busyTime 0.00083119017355382
scalar TestScenario.uninfected[29].nic.mac1609_4 ReceivedUnicastPackets 0
scalar TestScenario.uninfected[29].nic.mac1609_4 ReceivedBroadcasts 8
scalar TestScenario.uninfected[29].nic.mac1609_4 SentPackets 10
scalar TestScenario.uninfected[29].nic.mac1609_4 SentAcknowledgements 0
scalar TestScenario.uninfected[29].nic.mac1609_4 SNIRLostPackets 64
scalar TestScenario.uninfected[29].nic.mac1609_4 RXTXLostPackets 76
scalar TestScenario.uninfected[29].nic.mac1609_4 TotalLostPackets 140
scalar TestScenario.uninfected[29].nic.mac1609_4 DroppedPacketsInMac 0
scalar TestScenario.uninfected[29].nic.mac1609_4 TooLittleTime 0
scalar TestScenario.uninfected[29].nic.mac1609_4 TimesIntoBackoff 10
scalar TestScenario.uninfected[29].nic.mac1609_4 SlotsBackoff 21
scalar TestScenario.uninfected[29].nic.mac1609_4 NumInternalContention 0
scalar TestScenario.uninfected[29].nic.mac1609_4 totalBusyTime 0.00313
scalar TestScenario.uninfected[29].veinsmobility startTime 30
scalar TestScenario.uninfected[29].veinsmobility totalTime 10
scalar TestScenario.uninfected[29].veinsmobility stopTime 40.000118221395
scalar TestScenario.uninfected[29].veinsmobility minSpeed 4.0267832063152
scalar TestScenario.uninfected[29].veinsmobility maxSpeed 13.883888857865
scalar TestScenario.uninfected[29].veinsmobility totalDistance 103.10127715584
scalar TestScenario.uninfected[29].veinsmobility totalCO2Emission 39.798681863307
scalar TestScenario.uninfected[3].appl generatedWSMs 1
scalar TestScenario.uninfected[3].appl receivedWSMs 0
scalar TestScenario.uninfected[3].appl generatedBSMs 37
scalar TestScenario.uninfected[3].appl receivedBSMs 17
scalar TestScenario.uninfected[3].appl generatedWSAs 0
scalar TestScenario.uninfected[3].appl receivedWSAs 0
scalar TestScenario.uninfected[3].nic.phy80211p busyTime 0.00028155463095052
scalar TestScenario.uninfected[3].nic.mac1609_4 ReceivedUnicastPackets 0
scalar TestScenario.uninfected[3].nic.mac1609_4 ReceivedBroadcasts 17
scalar TestScenario.uninfected[3].nic.mac1609_4 SentPackets 37
scalar TestScenario.uninfected[3].nic.mac1609_4 SentAcknowledgements 0
scalar TestScenario.uninfected[3].nic.mac1609_4 SNIRLostPackets 75
scalar TestScenario.uninfected[3].nic.mac1609_4 RXTXLostPackets 113
scalar TestScenario.uninfected[3].nic.mac1609_4 TotalLostPackets 188
scalar TestScenario.uninfected[3].nic.mac1609_4 DroppedPacketsInMac 0
scalar TestScenario.uninfected[3].nic.mac1609_4 TooLittleTime 0
scalar TestScenario.uninfected[3].nic.mac1609_4 TimesIntoBackoff 37
scalar TestScenario.uninfected[3].nic.mac1609_4 SlotsBackoff 53
scalar TestScenario.uninfected[3].nic.mac1609_4 NumInternalContention 0
scalar TestScenario.uninfected[3].nic.mac1609_4 totalBusyTime 0.007653
scalar TestScenario.uninfected[3].veinsmobility startTime 4
scalar TestScenario.uninfected[3].veinsmobility totalTime 36
scalar TestScenario.uninfected[3].veinsmobility stopTime 40.000118221395
scalar TestScenario.uninfected[3].veinsmobility minSpeed 4.1837425248161
scalar TestScenario.uninfected[3].veinsmobility maxSpeed 13.884159127774
scalar TestScenario.uninfected[3].veinsmobility totalDistance 417.88102039535
scalar TestScenario.uninfected[3].veinsmobility totalCO2Emission 105.378407041
scalar TestScenario.uninfected[30].appl generatedWSMs 0
scalar TestScenario.uninfected[30].appl receivedWSMs 0
scalar TestScenario.uninfected[30].appl generatedBSMs 10
scalar TestScenario.uninfected[30].appl receivedBSMs 6
scalar TestScenario.uninfected[30].appl generatedWSAs 0
scalar TestScenario.uninfected[30].appl receivedWSAs 0
scalar TestScenario.uninfected[30].nic.phy80211p busyTime 0.00075021236764971
scalar TestScenario.uninfected[30].nic.mac1609_4 ReceivedUnicastPackets 0
scalar TestScenario.uninfected[30].nic.mac1609_4 ReceivedBroadcasts 6
scalar TestScenario.uninfected[30].nic.mac1609_4 SentPackets 10
scalar TestScenario.uninfected[30].nic.mac1609_4 SentAcknowledgements 0
scalar TestScenario.uninfected[30].nic.mac1609_4 SNIRLostPackets 53
scalar TestScenario.uninfected[30].nic.mac1609_4 RXTXLostPackets 62
scalar TestScenario.uninfected[30].nic.mac1609_4 TotalLostPackets 115
scalar TestScenario.uninfected[30].nic.mac1609_4 DroppedPacketsInMac 0
scalar TestScenario.uninfected[30].nic.mac1609_4 TooLittleTime 0
scalar TestScenario.uninfected[30].nic.mac1609_4 TimesIntoBackoff 10
scalar TestScenario.uninfected[30].nic.mac1609_4 SlotsBackoff 21
scalar TestScenario.uninfected[30].nic.mac1609_4 NumInternalContention 0
scalar TestScenario.uninfected[30].nic.mac1609_4 totalBusyTime 0.002842
scalar TestScenario.uninfected[30].veinsmobility startTime 31
scalar TestScenario.uninfected[30].veinsmobility totalTime 9
scalar TestScenario.uninfected[30].veinsmobility stopTime 40.000118221395
scalar TestScenario.uninfected[30].veinsmobility minSpeed 4.0853260210276
scalar TestScenario.uninfected[30].veinsmobility maxSpeed 13.855860151714
scalar TestScenario.uninfected[30].veinsmobility totalDistance 88.44513354304
scalar TestScenario.uninfected[30].veinsmobility totalCO2Emission 37.617855147753
scalar TestScenario.uninfected[31].appl generatedWSMs 0
scalar TestScenario.uninfected[31].appl receivedWSMs 0
scalar TestScenario.uninfected[31].appl generatedBSMs 9
scalar TestScenario.uninfected[31].appl receivedBSMs 5
scalar TestScenario.uninfected[31].appl generatedWSAs 0
scalar TestScenario.uninfected[31].appl receivedWSAs 0
scalar TestScenario.uninfected[31].nic.phy80211p busyTime 0.00086398723227802
scalar TestScenario.uninfected[31].nic.mac1609_4 ReceivedUnicastPackets 0
scalar TestScenario.uninfected[31].nic.mac1609_4 ReceivedBroadcasts 5
scalar TestScenario.uninfected[31].nic.mac1609_4 SentPackets 9
scalar TestScenario.uninfected[31].nic.mac1609_4 SentAcknowledgements 0
scalar TestScenario.uninfected[31].nic.mac1609_4 SNIRLostPackets 58
scalar TestScenario.uninfected[31].nic.mac1609_4 RXTXLostPackets 51
scalar TestScenario.uninfected[31].nic.mac1609_4 TotalLostPackets 109
scalar TestScenario.uninfected[31].nic.mac1609_4 DroppedPacketsInMac 0
scalar TestScenario.uninfected[31].nic.mac1609_4 TooLittleTime 0
scalar TestScenario.uninfected[31].nic.mac1609_4 TimesIntoBackoff 9
scalar TestScenario.uninfected[31].nic.mac1609_4 SlotsBackoff 15
scalar TestScenario.uninfected[31].nic.mac1609_4 NumInternalContention 0
scalar TestScenario.uninfected[31].nic.mac1609_4 totalBusyTime 0.002401
scalar TestScenario.uninfected[31].veinsmobility startTime 32
scalar TestScenario.uninfected[31].veinsmobility totalTime 8
scalar TestScenario.uninfected[31].veinsmobility stopTime 40.000118221395
scalar TestScenario.uninfected[31].veinsmobility minSpeed 3.9225065514804
scalar TestScenario.uninfected[31].veinsmobility maxSpeed 13.80928850814
scalar TestScenario.uninfected[31].veinsmobility totalDistance 74.728089376373
scalar TestScenario.uninfected[31].veinsmobility totalCO2Emission 35.842839089842
scalar TestScenario.uninfected[32].appl generatedWSMs 0
scalar TestScenario.uninfected[32].appl receivedWSMs 0
scalar TestScenario.uninfected[32].appl generatedBSMs 8
scalar TestScenario.uninfected[32].appl receivedBSMs 4
scalar TestScenario.uninfected[32].appl generatedWSAs 0
scalar TestScenario.uninfected[32].appl receivedWSAs 0
scalar TestScenario.uninfected[32].nic.phy80211p busyTime 0.00028228094690752
scalar TestScenario.uninfected[32].nic.mac1609_4 ReceivedUnicastPackets 0
scalar TestScenario.uninfected[32].nic.mac1609_4 ReceivedBroadcasts 4
scalar TestScenario.uninfected[32].nic.mac1609_4 SentPackets 8
scalar TestScenario.uninfected[32].nic.mac1609_4 SentAcknowledgements 0
scalar TestScenario.uninfected[32].nic.mac1609_4 SNIRLostPackets 15
scalar TestScenario.uninfected[32].nic.mac1609_4 RXTXLostPackets 35
scalar TestScenario.uninfected[32].nic.mac1609_4 TotalLostPackets 50
scalar TestScenario.uninfected[32].nic.mac1609_4 DroppedPacketsInMac 0
scalar TestScenario.uninfected[32].nic.mac1609_4 TooLittleTime 0
scalar TestScenario.uninfected[32].nic.mac1609_4 TimesIntoBackoff 8
scalar TestScenario.uninfected[32].nic.mac1609_4 SlotsBackoff 3
scalar TestScenario.uninfected[32].nic.mac1609_4 NumInternalContention 0
scalar TestScenario.uninfected[32].nic.mac1609_4 totalBusyTime 0.001776060592
scalar TestScenario.uninfected[32].veinsmobility startTime 33
scalar TestScenario.uninfected[32].veinsmobility totalTime 7
scalar TestScenario.uninfected[32].veinsmobility stopTime 40.000118221395
scalar TestScenario.uninfected[32].veinsmobility minSpeed 4.0824178071691
scalar TestScenario.uninfected[32].veinsmobility maxSpeed 13.883236124318
scalar TestScenario.uninfected[32].veinsmobility totalDistance 61.345624709124
scalar TestScenario.uninfected[32].veinsmobility totalCO2Emission 33.857948631155
scalar TestScenario.uninfected[33].appl generatedWSMs 0
scalar TestScenario.uninfected[33].appl receivedWSMs 0
scalar TestScenario.uninfected[33].appl generatedBSMs 7
scalar TestScenario.uninfected[33].appl receivedBSMs 4
scalar TestScenario.uninfected[33].appl generatedWSAs 0
scalar TestScenario.uninfected[33].appl receivedWSAs 0
scalar TestScenario.uninfected[33].nic.phy80211p busyTime 0.00047599062128746
scalar TestScenario.uninfected[33].nic.mac1609_4 ReceivedUnicastPackets 0
scalar TestScenario.uninfected[33].nic.mac1609_4 ReceivedBroadcasts 4
scalar TestScenario.uninfected[33].nic.mac1609_4 SentPackets 7
scalar TestScenario.uninfected[33].nic.mac1609_4 SentAcknowledgements 0
scalar TestScenario.uninfected[33].nic.mac1609_4 SNIRLostPackets 20
scalar TestScenario.uninfected[33].nic.mac1609_4 RXTXLostPackets 25
scalar TestScenario.uninfected[33].nic.mac1609_4 TotalLostPackets 45
scalar TestScenario.uninfected[33].nic.mac1609_4 DroppedPacketsInMac 0
scalar TestScenario.uninfected[33].nic.mac1609_4 TooLittleTime 0
scalar TestScenario.uninfected[33].nic.mac1609_4 TimesIntoBackoff 7
scalar TestScenario.uninfected[33].nic.mac1609_4 SlotsBackoff 8
scalar TestScenario.uninfected[33].nic.mac1609_4 NumInternalContention 0
scalar TestScenario.uninfected[33].nic.mac1609_4 totalBusyTime 0.001695
scalar TestScenario.uninfected[33].veinsmobility startTime 34
scalar TestScenario.uninfected[33].veinsmobility totalTime 6
scalar TestScenario.uninfected[33].veinsmobility stopTime 40.000118221395
scalar TestScenario.uninfected[33].veinsmobility minSpeed 4.0696022958814
scalar TestScenario.uninfected[33].veinsmobility maxSpeed 13.869774090406
scalar TestScenario.uninfected[33].veinsmobility totalDistance 48.185335712189
scalar TestScenario.uninfected[33].veinsmobility totalCO2Emission 31.980334806654
scalar TestScenario.uninfected[34].appl generatedWSMs 0
scalar TestScenario.uninfected[34].appl receivedWSMs 0
scalar TestScenario.uninfected[34].appl generatedBSMs 6
scalar TestScenario.uninfected[34].appl receivedBSMs 5
scalar TestScenario.uninfected[34].appl generatedWSAs 0
scalar TestScenario.uninfected[34].appl receivedWSAs 0
scalar TestScenario.uninfected[34].nic.phy80211p busyTime 0.00033759201788014
scalar TestScenario.uninfected[34].nic.mac1609_4 ReceivedUnicastPackets 0
scalar TestScenario.uninfected[34].nic.mac1609_4 ReceivedBroadcasts 5
scalar TestScenario.uninfected[34].nic.mac1609_4 SentPackets 6
scalar TestScenario.uninfected[34].nic.mac1609_4 SentAcknowledgements 0
scalar TestScenario.uninfected[34].nic.mac1609_4 SNIRLostPackets 10
scalar TestScenario.uninfected[34].nic.mac1609_4 RXTXLostPackets 21
scalar TestScenario.uninfected[34].nic.mac1609_4 TotalLostPackets 31
scalar TestScenario.uninfected[34].nic.mac1609_4 DroppedPacketsInMac 0
scalar TestScenario.uninfected[34].nic.mac1609_4 TooLittleTime 0
scalar TestScenario.uninfected[34].nic.mac1609_4 TimesIntoBackoff 6
scalar TestScenario.uninfected[34].nic.mac1609_4 SlotsBackoff 4
scalar TestScenario.uninfected[34].nic.mac1609_4 NumInternalContention 0
scalar TestScenario.uninfected[34].nic.mac1609_4 totalBusyTime 0.001462
scalar TestScenario.uninfected[34].veinsmobility startTime 35
scalar TestScenario.uninfected[34].veinsmobility totalTime 5
scalar TestScenario.uninfected[34].veinsmobility stopTime 40.000118221395
scalar TestScenario.uninfected[34].veinsmobility minSpeed 4.0503513397236
scalar TestScenario.uninfected[34].veinsmobility maxSpeed 11.865801862693
scalar TestScenario.uninfected[34].veinsmobility totalDistance 35.590590526098
scalar TestScenario.uninfected[34].veinsmobility totalCO2Emission 23.32711359282
scalar TestScenario.uninfected[35].appl generatedWSMs 0
scalar TestScenario.uninfected[35].appl receivedWSMs 0
scalar TestScenario.uninfected[35].appl generatedBSMs 5
scalar TestScenario.uninfected[35].appl receivedBSMs 4
scalar TestScenario.uninfected[35].appl generatedWSAs 0
scalar TestScenario.uninfected[35].appl receivedWSAs 0
scalar TestScenario.uninfected[35].nic.phy80211p busyTime 0.00058398274018645
scalar TestScenario.uninfected[35].nic.mac1609_4 ReceivedUnicastPackets 0
scalar TestScenario.uninfected[35].nic.mac1609_4 ReceivedBroadcasts 4
scalar TestScenario.uninfected[35].nic.mac1609_4 SentPackets 5
scalar TestScenario.uninfected[35].nic.mac1609_4 SentAcknowledgements 0
scalar TestScenario.uninfected[35].nic.mac1609_4 SNIRLostPackets 14
scalar TestScenario.uninfected[35].nic.mac1609_4 RXTXLostPackets 25
scalar TestScenario.uninfected[35].nic.mac1609_4 TotalLostPackets 39
scalar TestScenario.uninfected[35].nic.mac1609_4 DroppedPacketsInMac 0
scalar TestScenario.uninfected[35].nic.mac1609_4 TooLittleTime 0
scalar TestScenario.uninfected[35].nic.mac1609_4 TimesIntoBackoff 5
scalar TestScenario.uninfected[35].nic.mac1609_4 SlotsBackoff 12
scalar TestScenario.uninfected[35].nic.mac1609_4 NumInternalContention 0
scalar TestScenario.uninfected[35].nic.mac1609_4 totalBusyTime 0.001149120118
scalar TestScenario.uninfected[35].veinsmobility startTime 36
scalar TestScenario.uninfected[35].veinsmobility totalTime 4
scalar TestScenario.uninfected[35].veinsmobility stopTime 40.000118221395
scalar TestScenario.uninfected[35].veinsmobility minSpeed 3.8275556167678
scalar TestScenario.uninfected[35].veinsmobility maxSpeed 9.6983812105164
scalar TestScenario.uninfected[35].veinsmobility totalDistance 23.659171644431
scalar TestScenario.uninfected[35].veinsmobility totalCO2Emission 15.553444309412
scalar TestScenario.uninfected[36].appl generatedWSMs 0
scalar TestScenario.uninfected[36].appl receivedWSMs 0
scalar TestScenario.uninfected[36].appl generatedBSMs 4
scalar TestScenario.uninfected[36].appl receivedBSMs 3
scalar TestScenario.uninfected[36].appl generatedWSAs 0
scalar TestScenario.uninfected[36].appl receivedWSAs 0
scalar TestScenario.uninfected[36].nic.phy80211p busyTime 0.00049331389324779
scalar TestScenario.uninfected[36].nic.mac1609_4 ReceivedUnicastPackets 0
scalar TestScenario.uninfected[36].nic.mac1609_4 ReceivedBroadcasts 3
scalar TestScenario.uninfected[36].nic.mac1609_4 SentPackets 4
scalar TestScenario.uninfected[36].nic.mac1609_4 SentAcknowledgements 0
scalar TestScenario.uninfected[36].nic.mac1609_4 SNIRLostPackets 9
scalar TestScenario.uninfected[36].nic.mac1609_4 RXTXLostPackets 19
scalar TestScenario.uninfected[36].nic.mac1609_4 TotalLostPackets 28
scalar TestScenario.uninfected[36].nic.mac1609_4 DroppedPacketsInMac 0
scalar TestScenario.uninfected[36].nic.mac1609_4 TooLittleTime 0
scalar TestScenario.uninfected[36].nic.mac1609_4 TimesIntoBackoff 4
scalar TestScenario.uninfected[36].nic.mac1609_4 SlotsBackoff 4
scalar TestScenario.uninfected[36].nic.mac1609_4 NumInternalContention 0
scalar TestScenario.uninfected[36].nic.mac1609_4 totalBusyTime 0.00083602014
scalar TestScenario.uninfected[36].veinsmobility startTime 37
scalar TestScenario.uninfected[36].veinsmobility totalTime 3
scalar TestScenario.uninfected[36].veinsmobility stopTime 40.000118221395
scalar TestScenario.uninfected[36].veinsmobility minSpeed 3.9311891910371
scalar TestScenario.uninfected[36].veinsmobility maxSpeed 7.5189216745884
scalar TestScenario.uninfected[36].veinsmobility totalDistance 14.691630180994
scalar TestScenario.uninfected[36].veinsmobility totalCO2Emission 8.6444247016676
scalar TestScenario.uninfected[37].appl generatedWSMs 0
scalar TestScenario.uninfected[37].appl receivedWSMs 0
scalar TestScenario.uninfected[37].appl generatedBSMs 3
scalar TestScenario.uninfected[37].appl receivedBSMs 1
scalar TestScenario.uninfected[37].appl generatedWSAs 0
scalar TestScenario.uninfected[37].appl receivedWSAs 0
scalar TestScenario.uninfected[37].nic.phy80211p busyTime 0.00020798770570164
scalar TestScenario.uninfected[37].nic.mac1609_4 ReceivedUnicastPackets 0
scalar TestScenario.uninfected[37].nic.mac1609_4 ReceivedBroadcasts 1
scalar TestScenario.uninfected[37].nic.mac1609_4 SentPackets 3
scalar TestScenario.uninfected[37].nic.mac1609_4 SentAcknowledgements 0
scalar TestScenario.uninfected[37].nic.mac1609_4 SNIRLostPackets 3
scalar TestScenario.uninfected[37].nic.mac1609_4 RXTXLostPackets 15
scalar TestScenario.uninfected[37].nic.mac1609_4 TotalLostPackets 18
scalar TestScenario.uninfected[37].nic.mac1609_4 DroppedPacketsInMac 0
scalar TestScenario.uninfected[37].nic.mac1609_4 TooLittleTime 0
scalar TestScenario.uninfected[37].nic.mac1609_4 TimesIntoBackoff 3
scalar TestScenario.uninfected[37].nic.mac1609_4 SlotsBackoff 3
scalar TestScenario.uninfected[37].nic.mac1609_4 NumInternalContention 0
scalar TestScenario.uninfected[37].nic.mac1609_4 totalBusyTime 0.000523
scalar TestScenario.uninfected[37].veinsmobility startTime 38
scalar TestScenario.uninfected[37].veinsmobility totalTime 2
scalar TestScenario.uninfected[37].veinsmobility stopTime 40.000118221395
scalar TestScenario.uninfected[37].veinsmobility minSpeed 3.9493632784271
scalar TestScenario.uninfected[37].veinsmobility maxSpeed 6.0126749007421
scalar TestScenario.uninfected[37].veinsmobility totalDistance 8.2181452723974
scalar TestScenario.uninfected[37].veinsmobility totalCO2Emission 4.4099833020164
scalar TestScenario.uninfected[38].appl generatedWSMs 0
scalar TestScenario.uninfected[38].appl receivedWSMs 0
scalar TestScenario.uninfected[38].appl generatedBSMs 2
scalar TestScenario.uninfected[38].appl receivedBSMs 0
scalar TestScenario.uninfected[38].appl generatedWSAs 0
scalar TestScenario.uninfected[38].appl receivedWSAs 0
scalar TestScenario.uninfected[38].nic.phy80211p busyTime 0.00031196311928485
scalar TestScenario.uninfected[38].nic.mac1609_4 ReceivedUnicastPackets 0
scalar TestScenario.uninfected[38].nic.mac1609_4 ReceivedBroadcasts 0
scalar TestScenario.uninfected[38].nic.mac1609_4 SentPackets 2
scalar TestScenario.uninfected[38].nic.mac1609_4 SentAcknowledgements 0
scalar TestScenario.uninfected[38].nic.mac1609_4 SNIRLostPackets 3
scalar TestScenario.uninfected[38].nic.mac1609_4 RXTXLostPackets 4
scalar TestScenario.uninfected[38].nic.mac1609_4 TotalLostPackets 7
scalar TestScenario.uninfected[38].nic.mac1609_4 DroppedPacketsInMac 0
scalar TestScenario.uninfected[38].nic.mac1609_4 TooLittleTime 0
scalar TestScenario.uninfected[38].nic.mac1609_4 TimesIntoBackoff 2
scalar TestScenario.uninfected[38].nic.mac1609_4 SlotsBackoff 3
scalar TestScenario.uninfected[38].nic.mac1609_4 NumInternalContention 0
scalar TestScenario.uninfected[38].nic.mac1609_4 totalBusyTime 0.000314
scalar TestScenario.uninfected[38].veinsmobility startTime 39
scalar TestScenario.uninfected[38].veinsmobility totalTime 1
scalar TestScenario.uninfected[38].veinsmobility stopTime 40.000118221395
scalar TestScenario.uninfected[38].veinsmobility minSpeed 4.2251892715629
scalar TestScenario.uninfected[38].veinsmobility maxSpeed 4.2251892715629
scalar TestScenario.uninfected[38].veinsmobility totalDistance 3.2840167823088
scalar TestScenario.uninfected[38].veinsmobility totalCO2Emission 0
scalar TestScenario.uninfected[39].appl generatedWSMs 0
scalar TestScenario.uninfected[39].appl receivedWSMs 0
scalar TestScenario.uninfected[39].appl generatedBSMs 1
scalar TestScenario.uninfected[39].appl receivedBSMs 0
scalar TestScenario.uninfected[39].appl generatedWSAs 0
scalar TestScenario.uninfected[39].appl receivedWSAs 0
scalar TestScenario.uninfected[39].nic.phy80211p busyTime 8.3233665107741
scalar TestScenario.uninfected[39].nic.mac1609_4 ReceivedUnicastPackets 0
scalar TestScenario.uninfected[39].nic.mac1609_4 ReceivedBroadcasts 0
scalar TestScenario.uninfected[39].nic.mac1609_4 SentPackets 0
scalar TestScenario.uninfected[39].nic.mac1609_4 SentAcknowledgements 0
scalar TestScenario.uninfected[39].nic.mac1609_4 SNIRLostPackets 5
scalar TestScenario.uninfected[39].nic.mac1609_4 RXTXLostPackets 0
scalar TestScenario.uninfected[39].nic.mac1609_4 TotalLostPackets 5
scalar TestScenario.uninfected[39].nic.mac1609_4 DroppedPacketsInMac 0
scalar TestScenario.uninfected[39].nic.mac1609_4 TooLittleTime 0
scalar TestScenario.uninfected[39].nic.mac1609_4 TimesIntoBackoff 0
scalar TestScenario.uninfected[39].nic.mac1609_4 SlotsBackoff 0
scalar TestScenario.uninfected[39].nic.mac1609_4 NumInternalContention 0
scalar TestScenario.uninfected[39].nic.mac1609_4 totalBusyTime 0.000104
scalar TestScenario.uninfected[39].veinsmobility startTime 40
scalar TestScenario.uninfected[39].veinsmobility totalTime 0
scalar TestScenario.uninfected[39].veinsmobility stopTime 40.000118221395
scalar TestScenario.uninfected[39].veinsmobility totalDistance 0
scalar TestScenario.uninfected[39].veinsmobility totalCO2Emission 0
scalar TestScenario.uninfected[4].appl generatedWSMs 0
scalar TestScenario.uninfected[4].appl receivedWSMs 0
scalar TestScenario.uninfected[4].appl generatedBSMs 36
scalar TestScenario.uninfected[4].appl receivedBSMs 18
scalar TestScenario.uninfected[4].appl generatedWSAs 0
scalar TestScenario.uninfected[4].appl receivedWSAs 0
scalar TestScenario.uninfected[4].nic.phy80211p busyTime 0.00040754148056793
scalar TestScenario.uninfected[4].nic.mac1609_4 ReceivedUnicastPackets 0
scalar TestScenario.uninfected[4].nic.mac1609_4 ReceivedBroadcasts 18
scalar TestScenario.uninfected[4].nic.mac1609_4 SentPackets 35
scalar TestScenario.uninfected[4].nic.mac1609_4 SentAcknowledgements 0
scalar TestScenario.uninfected[4].nic.mac1609_4 SNIRLostPackets 108
scalar TestScenario.uninfected[4].nic.mac1609_4 RXTXLostPackets 205
scalar TestScenario.uninfected[4].nic.mac1609_4 TotalLostPackets 313
scalar TestScenario.uninfected[4].nic.mac1609_4 DroppedPacketsInMac 0
scalar TestScenario.uninfected[4].nic.mac1609_4 TooLittleTime 0
scalar TestScenario.uninfected[4].nic.mac1609_4 TimesIntoBackoff 35
scalar TestScenario.uninfected[4].nic.mac1609_4 SlotsBackoff 50
scalar TestScenario.uninfected[4].nic.mac1609_4 NumInternalContention 0
scalar TestScenario.uninfected[4].nic.mac1609_4 totalBusyTime 0.008311705915
scalar TestScenario.uninfected[4].veinsmobility startTime 5
scalar TestScenario.uninfected[4].veinsmobility totalTime 35
scalar TestScenario.uninfected[4].veinsmobility stopTime 40.000118221395
scalar TestScenario.uninfected[4].veinsmobility minSpeed 4.0393522846261
scalar TestScenario.uninfected[4].veinsmobility maxSpeed 13.886014063652
scalar TestScenario.uninfected[4].veinsmobility totalDistance 449.08716658832
scalar TestScenario.uninfected[4].veinsmobility totalCO2Emission 90.348482788644
scalar TestScenario.uninfected[5].appl generatedWSMs 2
scalar TestScenario.uninfected[5].appl receivedWSMs 0
scalar TestScenario.uninfected[5].appl generatedBSMs 35
scalar TestScenario.uninfected[5].appl receivedBSMs 22
scalar TestScenario.uninfected[5].appl generatedWSAs 0
scalar TestScenario.uninfected[5].appl receivedWSAs 0
scalar TestScenario.uninfected[5].nic.phy80211p busyTime 0.00019035227930259
scalar TestScenario.uninfected[5].nic.mac1609_4 ReceivedUnicastPackets 0
scalar TestScenario.uninfected[5].nic.mac1609_4 ReceivedBroadcasts 22
scalar TestScenario.uninfected[5].nic.mac1609_4 SentPackets 36
scalar TestScenario.uninfected[5].nic.mac1609_4 SentAcknowledgements 0
scalar TestScenario.uninfected[5].nic.mac1609_4 SNIRLostPackets 39
scalar TestScenario.uninfected[5].nic.mac1609_4 RXTXLostPackets 82
scalar TestScenario.uninfected[5].nic.mac1609_4 TotalLostPackets 121
scalar TestScenario.uninfected[5].nic.mac1609_4 DroppedPacketsInMac 0
scalar TestScenario.uninfected[5].nic.mac1609_4 TooLittleTime 0
scalar TestScenario.uninfected[5].nic.mac1609_4 TimesIntoBackoff 35
scalar TestScenario.uninfected[5].nic.mac1609_4 SlotsBackoff 52
scalar TestScenario.uninfected[5].nic.mac1609_4 NumInternalContention 0
scalar TestScenario.uninfected[5].nic.mac1609_4 totalBusyTime 0.007136857716
scalar TestScenario.uninfected[5].veinsmobility startTime 6
scalar TestScenario.uninfected[5].veinsmobility totalTime 34
scalar TestScenario.uninfected[5].veinsmobility stopTime 40.000118221395
scalar TestScenario.uninfected[5].veinsmobility minSpeed 3.6002955662995
scalar TestScenario.uninfected[5].veinsmobility maxSpeed 13.873900225542
scalar TestScenario.uninfected[5].veinsmobility totalDistance 363.88012016025
scalar TestScenario.uninfected[5].veinsmobility totalCO2Emission 104.50004534684
scalar TestScenario.uninfected[6].appl generatedWSMs 1
scalar TestScenario.uninfected[6].appl receivedWSMs 0
scalar TestScenario.uninfected[6].appl generatedBSMs 34
scalar TestScenario.uninfected[6].appl receivedBSMs 14
scalar TestScenario.uninfected[6].appl generatedWSAs 0
scalar TestScenario.uninfected[6].appl receivedWSAs 0
scalar TestScenario.uninfected[6].nic.phy80211p busyTime 0.00024412033756828
scalar TestScenario.uninfected[6].nic.mac1609_4 ReceivedUnicastPackets 0
scalar TestScenario.uninfected[6].nic.mac1609_4 ReceivedBroadcasts 14
scalar TestScenario.uninfected[6].nic.mac1609_4 SentPackets 34
scalar TestScenario.uninfected[6].nic.mac1609_4 SentAcknowledgements 0
scalar TestScenario.uninfected[6].nic.mac1609_4 SNIRLostPackets 60
scalar TestScenario.uninfected[6].nic.mac1609_4 RXTXLostPackets 68
scalar TestScenario.uninfected[6].nic.mac1609_4 TotalLostPackets 128
scalar TestScenario.uninfected[6].nic.mac1609_4 DroppedPacketsInMac 0
scalar TestScenario.uninfected[6].nic.mac1609_4 TooLittleTime 0
scalar TestScenario.uninfected[6].nic.mac1609_4 TimesIntoBackoff 34
scalar TestScenario.uninfected[6].nic.mac1609_4 SlotsBackoff 52
scalar TestScenario.uninfected[6].nic.mac1609_4 NumInternalContention 0
scalar TestScenario.uninfected[6].nic.mac1609_4 totalBusyTime 0.007293039315
scalar TestScenario.uninfected[6].veinsmobility startTime 7
scalar TestScenario.uninfected[6].veinsmobility totalTime 33
scalar TestScenario.uninfected[6].veinsmobility stopTime 40.000118221395
scalar TestScenario.uninfected[6].veinsmobility minSpeed 3.65
scalar TestScenario.uninfected[6].veinsmobility maxSpeed 13.887267990485
scalar TestScenario.uninfected[6].veinsmobility totalDistance 353.55452135658
scalar TestScenario.uninfected[6].veinsmobility totalCO2Emission 102.77624109613
scalar TestScenario.uninfected[7].appl generatedWSMs 1
scalar TestScenario.uninfected[7].appl receivedWSMs 1
scalar TestScenario.uninfected[7].appl generatedBSMs 33
scalar TestScenario.uninfected[7].appl receivedBSMs 15
scalar TestScenario.uninfected[7].appl generatedWSAs 0
scalar TestScenario.uninfected[7].appl receivedWSAs 0
scalar TestScenario.uninfected[7].nic.phy80211p busyTime 0.00028899893231697
scalar TestScenario.uninfected[7].nic.mac1609_4 ReceivedUnicastPackets 0
scalar TestScenario.uninfected[7].nic.mac1609_4 ReceivedBroadcasts 16
scalar TestScenario.uninfected[7].nic.mac1609_4 SentPackets 33
scalar TestScenario.uninfected[7].nic.mac1609_4 SentAcknowledgements 0
scalar TestScenario.uninfected[7].nic.mac1609_4 SNIRLostPackets 67
scalar TestScenario.uninfected[7].nic.mac1609_4 RXTXLostPackets 154
scalar TestScenario.uninfected[7].nic.mac1609_4 TotalLostPackets 221
scalar TestScenario.uninfected[7].nic.mac1609_4 DroppedPacketsInMac 0
scalar TestScenario.uninfected[7].nic.mac1609_4 TooLittleTime 0
scalar TestScenario.uninfected[7].nic.mac1609_4 TimesIntoBackoff 32
scalar TestScenario.uninfected[7].nic.mac1609_4 SlotsBackoff 52
scalar TestScenario.uninfected[7].nic.mac1609_4 NumInternalContention 0
scalar TestScenario.uninfected[7].nic.mac1609_4 totalBusyTime 0.006944095213
scalar TestScenario.uninfected[7].veinsmobility startTime 8
scalar TestScenario.uninfected[7].veinsmobility totalTime 32
scalar TestScenario.uninfected[7].veinsmobility stopTime 40.000118221395
scalar TestScenario.uninfected[7].veinsmobility minSpeed 3.7866329477703
scalar TestScenario.uninfected[7].veinsmobility maxSpeed 13.887499832131
scalar TestScenario.uninfected[7].veinsmobility totalDistance 372.07852484335
scalar TestScenario.uninfected[7].veinsmobility totalCO2Emission 98.152532493166
scalar TestScenario.uninfected[8].appl generatedWSMs 1
scalar TestScenario.uninfected[8].appl receivedWSMs 0
scalar TestScenario.uninfected[8].appl generatedBSMs 32
scalar TestScenario.uninfected[8].appl receivedBSMs 22
scalar TestScenario.uninfected[8].appl generatedWSAs 0
scalar TestScenario.uninfected[8].appl receivedWSAs 0
scalar TestScenario.uninfected[8].nic.phy80211p busyTime 0.00041574035001922
scalar TestScenario.uninfected[8].nic.mac1609_4 ReceivedUnicastPackets 0
scalar TestScenario.uninfected[8].nic.mac1609_4 ReceivedBroadcasts 22
scalar TestScenario.uninfected[8].nic.mac1609_4 SentPackets 32
scalar TestScenario.uninfected[8].nic.mac1609_4 SentAcknowledgements 0
scalar TestScenario.uninfected[8].nic.mac1609_4 SNIRLostPackets 92
scalar TestScenario.uninfected[8].nic.mac1609_4 RXTXLostPackets 120
scalar TestScenario.uninfected[8].nic.mac1609_4 TotalLostPackets 212
scalar TestScenario.uninfected[8].nic.mac1609_4 DroppedPacketsInMac 0
scalar TestScenario.uninfected[8].nic.mac1609_4 TooLittleTime 0
scalar TestScenario.uninfected[8].nic.mac1609_4 TimesIntoBackoff 32
scalar TestScenario.uninfected[8].nic.mac1609_4 SlotsBackoff 50
scalar TestScenario.uninfected[8].nic.mac1609_4 NumInternalContention 0
scalar TestScenario.uninfected[8].nic.mac1609_4 totalBusyTime 0.007752026718
scalar TestScenario.uninfected[8].veinsmobility startTime 9
scalar TestScenario.uninfected[8].veinsmobility totalTime 31
scalar TestScenario.uninfected[8].veinsmobility stopTime 40.000118221395
scalar TestScenario.uninfected[8].veinsmobility minSpeed 3.9024381770133
scalar TestScenario.uninfected[8].veinsmobility maxSpeed 13.877882378786
scalar TestScenario.uninfected[8].veinsmobility totalDistance 336.53135231401
scalar TestScenario.uninfected[8].veinsmobility totalCO2Emission 99.294997716881
scalar TestScenario.uninfected[9].appl generatedWSMs 1
scalar TestScenario.uninfected[9].appl receivedWSMs 0
scalar TestScenario.uninfected[9].appl generatedBSMs 31
scalar TestScenario.uninfected[9].appl receivedBSMs 16
scalar TestScenario.uninfected[9].appl generatedWSAs 0
scalar TestScenario.uninfected[9].appl receivedWSAs 0
scalar TestScenario.uninfected[9].nic.phy80211p busyTime 0.0003455986380949
scalar TestScenario.uninfected[9].nic.mac1609_4 ReceivedUnicastPackets 0
scalar TestScenario.uninfected[9].nic.mac1609_4 ReceivedBroadcasts 16
scalar TestScenario.uninfected[9].nic.mac1609_4 SentPackets 32
scalar TestScenario.uninfected[9].nic.mac1609_4 SentAcknowledgements 0
scalar TestScenario.uninfected[9].nic.mac1609_4 SNIRLostPackets 80
scalar TestScenario.uninfected[9].nic.mac1609_4 RXTXLostPackets 174
scalar TestScenario.uninfected[9].nic.mac1609_4 TotalLostPackets 254
scalar TestScenario.uninfected[9].nic.mac1609_4 DroppedPacketsInMac 0
scalar TestScenario.uninfected[9].nic.mac1609_4 TooLittleTime 0
scalar TestScenario.uninfected[9].nic.mac1609_4 TimesIntoBackoff 32
scalar TestScenario.uninfected[9].nic.mac1609_4 SlotsBackoff 52
scalar TestScenario.uninfected[9].nic.mac1609_4 NumInternalContention 0
scalar TestScenario.uninfected[9].nic.mac1609_4 totalBusyTime 0.007384453944
scalar TestScenario.uninfected[9].veinsmobility startTime 10
scalar TestScenario.uninfected[9].veinsmobility totalTime 30
scalar TestScenario.uninfected[9].veinsmobility stopTime 40.000118221395
scalar TestScenario.uninfected[9].veinsmobility minSpeed 3.4112935226373
scalar TestScenario.uninfected[9].veinsmobility maxSpeed 13.886651660271
scalar TestScenario.uninfected[9].veinsmobility totalDistance 333.00522037868
scalar TestScenario.uninfected[9].veinsmobility totalCO2Emission 98.186137889344
scalar TestScenario.manager roiArea 0

