                                                                
version 2
run Default-0-20200723-20:26:49-13964
attr configname Default
attr datetime 20200723-20:26:49
attr experiment Default
attr inifile omnetpp.ini
attr iterationvars ""
attr iterationvarsf ""
attr measurement ""
attr network sim1.src.TestScenario
attr processid 13964
attr repetition 0
attr replication #0
attr resultdir results
attr runnumber 0
attr seedset 0
param *.playgroundSizeX 1000m
param *.playgroundSizeY 1000m
param *.playgroundSizeZ 50m
param *.manager.moduleType "\"exploited=org.car2x.veins.nodes.Car *=org.car2x.veins.nodes.Car\""
param *.manager.moduleName "\"exploited=exploited *=uninfected\""
param *.manager.updateInterval 1s
param *.manager.host "\"localhost\""
param *.manager.port 9999
param *.manager.autoShutdown true
param *.manager.launchConfig "xmldoc(\"demo.launchd.xml\")"
param *.connectionManager.sendDirect true
param *.connectionManager.maxInterfDist 300m
param *.connectionManager.drawMaxIntfDist false
param *.**.nic.mac1609_4.useServiceChannel false
param *.**.nic.mac1609_4.txPower 20mW
param *.**.nic.mac1609_4.bitrate 6Mbps
param *.**.nic.phy80211p.sensitivity -89dBm
param *.**.nic.phy80211p.useThermalNoise true
param *.**.nic.phy80211p.thermalNoise -110dBm
param *.**.nic.phy80211p.decider "xmldoc(\"config.xml\")"
param *.**.nic.phy80211p.analogueModels "xmldoc(\"config.xml\")"
param *.**.nic.phy80211p.usePropagationDelay true
param *.**.nic.phy80211p.antenna "xmldoc(\"antenna.xml\", \"/root/Antenna[@id='monopole']\")"
param *.uninfected[*].applType "\"sim1.src.Uninfected\""
param *.uninfected[*].appl.dataPriority 2
param *.uninfected[*].appl.headerLength "80 bit"
param *.uninfected[*].appl.sendBeacons false
param *.uninfected[*].appl.dataOnSch false
param *.uninfected[*].appl.beaconInterval 1s
param *.uninfected[*].veinsmobilityType.debug true
param *.uninfected[*].veinsmobility.x 0
param *.uninfected[*].veinsmobility.y 0
param *.uninfected[*].veinsmobility.z 1.895
param *.uninfected[*0].veinsmobility.accidentCount 1
param *.uninfected[*0].veinsmobility.accidentStart 75s
param *.uninfected[*0].veinsmobility.accidentDuration 50s
param *.exploited[*].applType "\"sim1.src.Exploited\""
param *.exploited[*].appl.dataPriority 2
param *.exploited[*].appl.headerLength "80 bit"
param *.exploited[*].appl.sendBeacons false
param *.exploited[*].appl.dataOnSch false
param *.exploited[*].appl.beaconInterval 1s
param *.exploited[*].veinsmobilityType.debug true
param *.exploited[*].veinsmobility.x 0
param *.exploited[*].veinsmobility.y 0
param *.exploited[*].veinsmobility.z 1.895
param *.exploited[*0].veinsmobility.accidentCount 1
param *.exploited[*0].veinsmobility.accidentStart 75s
param *.exploited[*0].veinsmobility.accidentDuration 50s

vector 0 TestScenario.uninfected[0].veinsmobility posx ETV
vector 1 TestScenario.uninfected[0].veinsmobility posy ETV
vector 2 TestScenario.uninfected[1].veinsmobility posx ETV
vector 3 TestScenario.uninfected[1].veinsmobility posy ETV
vector 4 TestScenario.uninfected[0].veinsmobility speed ETV
vector 5 TestScenario.uninfected[2].veinsmobility posx ETV
vector 6 TestScenario.uninfected[2].veinsmobility posy ETV
vector 7 TestScenario.uninfected[0].veinsmobility acceleration ETV
vector 8 TestScenario.uninfected[0].veinsmobility co2emission ETV
vector 9 TestScenario.uninfected[1].veinsmobility speed ETV
vector 10 TestScenario.uninfected[3].veinsmobility posx ETV
vector 11 TestScenario.uninfected[3].veinsmobility posy ETV
vector 12 TestScenario.uninfected[1].veinsmobility acceleration ETV
vector 13 TestScenario.uninfected[1].veinsmobility co2emission ETV
vector 14 TestScenario.uninfected[2].veinsmobility speed ETV
vector 15 TestScenario.uninfected[4].veinsmobility posx ETV
vector 16 TestScenario.uninfected[4].veinsmobility posy ETV
vector 17 TestScenario.uninfected[2].veinsmobility acceleration ETV
vector 18 TestScenario.uninfected[2].veinsmobility co2emission ETV
vector 19 TestScenario.uninfected[3].veinsmobility speed ETV
vector 20 TestScenario.uninfected[5].veinsmobility posx ETV
vector 21 TestScenario.uninfected[5].veinsmobility posy ETV
vector 22 TestScenario.uninfected[3].veinsmobility acceleration ETV
vector 23 TestScenario.uninfected[3].veinsmobility co2emission ETV
vector 24 TestScenario.uninfected[4].veinsmobility speed ETV
vector 25 TestScenario.uninfected[6].veinsmobility posx ETV
vector 26 TestScenario.uninfected[6].veinsmobility posy ETV
vector 27 TestScenario.uninfected[4].veinsmobility acceleration ETV
vector 28 TestScenario.uninfected[4].veinsmobility co2emission ETV
vector 29 TestScenario.uninfected[5].veinsmobility speed ETV
vector 30 TestScenario.uninfected[7].veinsmobility posx ETV
vector 31 TestScenario.uninfected[7].veinsmobility posy ETV
vector 32 TestScenario.uninfected[5].veinsmobility acceleration ETV
vector 33 TestScenario.uninfected[5].veinsmobility co2emission ETV
vector 34 TestScenario.uninfected[6].veinsmobility speed ETV
vector 35 TestScenario.uninfected[8].veinsmobility posx ETV
vector 36 TestScenario.uninfected[8].veinsmobility posy ETV
vector 37 TestScenario.uninfected[6].veinsmobility acceleration ETV
vector 38 TestScenario.uninfected[6].veinsmobility co2emission ETV
vector 39 TestScenario.uninfected[7].veinsmobility speed ETV
vector 40 TestScenario.uninfected[9].veinsmobility posx ETV
vector 41 TestScenario.uninfected[9].veinsmobility posy ETV
vector 42 TestScenario.uninfected[7].veinsmobility acceleration ETV
vector 43 TestScenario.uninfected[7].veinsmobility co2emission ETV
vector 44 TestScenario.uninfected[8].veinsmobility speed ETV
vector 45 TestScenario.uninfected[10].veinsmobility posx ETV
vector 46 TestScenario.uninfected[10].veinsmobility posy ETV
vector 47 TestScenario.uninfected[8].veinsmobility acceleration ETV
vector 48 TestScenario.uninfected[8].veinsmobility co2emission ETV
vector 49 TestScenario.uninfected[9].veinsmobility speed ETV
vector 50 TestScenario.uninfected[11].veinsmobility posx ETV
vector 51 TestScenario.uninfected[11].veinsmobility posy ETV
vector 52 TestScenario.uninfected[9].veinsmobility acceleration ETV
vector 53 TestScenario.uninfected[9].veinsmobility co2emission ETV
vector 54 TestScenario.uninfected[10].veinsmobility speed ETV
vector 55 TestScenario.uninfected[12].veinsmobility posx ETV
vector 56 TestScenario.uninfected[12].veinsmobility posy ETV
vector 57 TestScenario.uninfected[10].veinsmobility acceleration ETV
vector 58 TestScenario.uninfected[10].veinsmobility co2emission ETV
vector 59 TestScenario.uninfected[11].veinsmobility speed ETV
vector 60 TestScenario.uninfected[13].veinsmobility posx ETV
vector 61 TestScenario.uninfected[13].veinsmobility posy ETV
vector 62 TestScenario.uninfected[11].veinsmobility acceleration ETV
vector 63 TestScenario.uninfected[11].veinsmobility co2emission ETV
vector 64 TestScenario.uninfected[12].veinsmobility speed ETV
vector 65 TestScenario.uninfected[14].veinsmobility posx ETV
vector 66 TestScenario.uninfected[14].veinsmobility posy ETV
vector 67 TestScenario.uninfected[12].veinsmobility acceleration ETV
vector 68 TestScenario.uninfected[12].veinsmobility co2emission ETV
vector 69 TestScenario.uninfected[13].veinsmobility speed ETV
vector 70 TestScenario.uninfected[15].veinsmobility posx ETV
vector 71 TestScenario.uninfected[15].veinsmobility posy ETV
vector 72 TestScenario.uninfected[13].veinsmobility acceleration ETV
vector 73 TestScenario.uninfected[13].veinsmobility co2emission ETV
vector 74 TestScenario.uninfected[14].veinsmobility speed ETV
vector 75 TestScenario.uninfected[16].veinsmobility posx ETV
vector 76 TestScenario.uninfected[16].veinsmobility posy ETV
vector 77 TestScenario.uninfected[14].veinsmobility acceleration ETV
vector 78 TestScenario.uninfected[14].veinsmobility co2emission ETV
vector 79 TestScenario.uninfected[15].veinsmobility speed ETV
vector 80 TestScenario.uninfected[17].veinsmobility posx ETV
vector 81 TestScenario.uninfected[17].veinsmobility posy ETV
vector 82 TestScenario.uninfected[15].veinsmobility acceleration ETV
vector 83 TestScenario.uninfected[15].veinsmobility co2emission ETV
vector 84 TestScenario.uninfected[16].veinsmobility speed ETV
vector 85 TestScenario.uninfected[18].veinsmobility posx ETV
vector 86 TestScenario.uninfected[18].veinsmobility posy ETV
vector 87 TestScenario.uninfected[16].veinsmobility acceleration ETV
vector 88 TestScenario.uninfected[16].veinsmobility co2emission ETV
vector 89 TestScenario.uninfected[17].veinsmobility speed ETV
vector 90 TestScenario.uninfected[19].veinsmobility posx ETV
vector 91 TestScenario.uninfected[19].veinsmobility posy ETV
vector 92 TestScenario.uninfected[17].veinsmobility acceleration ETV
vector 93 TestScenario.uninfected[17].veinsmobility co2emission ETV
vector 94 TestScenario.uninfected[18].veinsmobility speed ETV
vector 95 TestScenario.uninfected[20].veinsmobility posx ETV
vector 96 TestScenario.uninfected[20].veinsmobility posy ETV
vector 97 TestScenario.uninfected[18].veinsmobility acceleration ETV
vector 98 TestScenario.uninfected[18].veinsmobility co2emission ETV
vector 99 TestScenario.uninfected[19].veinsmobility speed ETV
vector 100 TestScenario.uninfected[21].veinsmobility posx ETV
vector 101 TestScenario.uninfected[21].veinsmobility posy ETV
vector 102 TestScenario.uninfected[19].veinsmobility acceleration ETV
vector 103 TestScenario.uninfected[19].veinsmobility co2emission ETV
vector 104 TestScenario.uninfected[20].veinsmobility speed ETV
vector 105 TestScenario.uninfected[22].veinsmobility posx ETV
vector 106 TestScenario.uninfected[22].veinsmobility posy ETV
vector 107 TestScenario.uninfected[20].veinsmobility acceleration ETV
vector 108 TestScenario.uninfected[20].veinsmobility co2emission ETV
vector 109 TestScenario.uninfected[21].veinsmobility speed ETV
vector 110 TestScenario.uninfected[23].veinsmobility posx ETV
vector 111 TestScenario.uninfected[23].veinsmobility posy ETV
vector 112 TestScenario.uninfected[21].veinsmobility acceleration ETV
vector 113 TestScenario.uninfected[21].veinsmobility co2emission ETV
vector 114 TestScenario.uninfected[22].veinsmobility speed ETV
vector 115 TestScenario.uninfected[24].veinsmobility posx ETV
vector 116 TestScenario.uninfected[24].veinsmobility posy ETV
vector 117 TestScenario.uninfected[22].veinsmobility acceleration ETV
vector 118 TestScenario.uninfected[22].veinsmobility co2emission ETV
vector 119 TestScenario.uninfected[23].veinsmobility speed ETV
vector 120 TestScenario.uninfected[25].veinsmobility posx ETV
vector 121 TestScenario.uninfected[25].veinsmobility posy ETV
vector 122 TestScenario.uninfected[23].veinsmobility acceleration ETV
vector 123 TestScenario.uninfected[23].veinsmobility co2emission ETV
vector 124 TestScenario.uninfected[24].veinsmobility speed ETV
vector 125 TestScenario.uninfected[26].veinsmobility posx ETV
vector 126 TestScenario.uninfected[26].veinsmobility posy ETV
vector 127 TestScenario.uninfected[24].veinsmobility acceleration ETV
vector 128 TestScenario.uninfected[24].veinsmobility co2emission ETV
vector 129 TestScenario.uninfected[25].veinsmobility speed ETV
vector 130 TestScenario.uninfected[27].veinsmobility posx ETV
vector 131 TestScenario.uninfected[27].veinsmobility posy ETV
vector 132 TestScenario.uninfected[25].veinsmobility acceleration ETV
vector 133 TestScenario.uninfected[25].veinsmobility co2emission ETV
vector 134 TestScenario.uninfected[26].veinsmobility speed ETV
vector 135 TestScenario.uninfected[28].veinsmobility posx ETV
vector 136 TestScenario.uninfected[28].veinsmobility posy ETV
vector 137 TestScenario.uninfected[26].veinsmobility acceleration ETV
vector 138 TestScenario.uninfected[26].veinsmobility co2emission ETV
vector 139 TestScenario.uninfected[27].veinsmobility speed ETV
vector 140 TestScenario.uninfected[29].veinsmobility posx ETV
vector 141 TestScenario.uninfected[29].veinsmobility posy ETV
vector 142 TestScenario.uninfected[27].veinsmobility acceleration ETV
vector 143 TestScenario.uninfected[27].veinsmobility co2emission ETV
vector 144 TestScenario.uninfected[28].veinsmobility speed ETV
vector 145 TestScenario.uninfected[30].veinsmobility posx ETV
vector 146 TestScenario.uninfected[30].veinsmobility posy ETV
vector 147 TestScenario.uninfected[28].veinsmobility acceleration ETV
vector 148 TestScenario.uninfected[28].veinsmobility co2emission ETV
vector 149 TestScenario.uninfected[29].veinsmobility speed ETV
vector 150 TestScenario.uninfected[31].veinsmobility posx ETV
vector 151 TestScenario.uninfected[31].veinsmobility posy ETV
vector 152 TestScenario.uninfected[29].veinsmobility acceleration ETV
vector 153 TestScenario.uninfected[29].veinsmobility co2emission ETV
vector 154 TestScenario.uninfected[30].veinsmobility speed ETV
vector 155 TestScenario.uninfected[32].veinsmobility posx ETV
vector 156 TestScenario.uninfected[32].veinsmobility posy ETV
vector 157 TestScenario.uninfected[30].veinsmobility acceleration ETV
vector 158 TestScenario.uninfected[30].veinsmobility co2emission ETV
vector 159 TestScenario.uninfected[31].veinsmobility speed ETV
vector 160 TestScenario.uninfected[33].veinsmobility posx ETV
vector 161 TestScenario.uninfected[33].veinsmobility posy ETV
vector 162 TestScenario.uninfected[31].veinsmobility acceleration ETV
vector 163 TestScenario.uninfected[31].veinsmobility co2emission ETV
vector 164 TestScenario.uninfected[32].veinsmobility speed ETV
vector 165 TestScenario.uninfected[34].veinsmobility posx ETV
vector 166 TestScenario.uninfected[34].veinsmobility posy ETV
vector 167 TestScenario.uninfected[32].veinsmobility acceleration ETV
vector 168 TestScenario.uninfected[32].veinsmobility co2emission ETV
vector 169 TestScenario.uninfected[33].veinsmobility speed ETV
vector 170 TestScenario.uninfected[35].veinsmobility posx ETV
vector 171 TestScenario.uninfected[35].veinsmobility posy ETV
vector 172 TestScenario.uninfected[33].veinsmobility acceleration ETV
vector 173 TestScenario.uninfected[33].veinsmobility co2emission ETV
vector 174 TestScenario.uninfected[34].veinsmobility speed ETV
vector 175 TestScenario.uninfected[36].veinsmobility posx ETV
vector 176 TestScenario.uninfected[36].veinsmobility posy ETV
vector 177 TestScenario.uninfected[34].veinsmobility acceleration ETV
vector 178 TestScenario.uninfected[34].veinsmobility co2emission ETV
vector 179 TestScenario.uninfected[35].veinsmobility speed ETV
vector 180 TestScenario.uninfected[37].veinsmobility posx ETV
vector 181 TestScenario.uninfected[37].veinsmobility posy ETV
vector 182 TestScenario.uninfected[35].veinsmobility acceleration ETV
vector 183 TestScenario.uninfected[35].veinsmobility co2emission ETV
vector 184 TestScenario.uninfected[36].veinsmobility speed ETV
vector 185 TestScenario.uninfected[38].veinsmobility posx ETV
vector 186 TestScenario.uninfected[38].veinsmobility posy ETV
vector 187 TestScenario.uninfected[36].veinsmobility acceleration ETV
vector 188 TestScenario.uninfected[36].veinsmobility co2emission ETV
vector 189 TestScenario.uninfected[37].veinsmobility speed ETV
123	15173 420 10076 31948 26 39 14 1.7046288362581 7.8248594772988 50.054110153398 244.29796694799
122	15593 439 10076 31948 26 39 14 -0.09373022872256 2.0943918044725 9.8061608840758 18.728260891895
119	16032 446 9007 31948 25 39 15 4.0277950379694 13.878134806112 178.11467811615 2267.4349855542
111	16478 318 7919 31948 24 39 16 823.4 823.4 13174.4 10847800.96
110	16796 478 7919 31948 24 39 16 452.54479423958 611.61766712898 8764.6970416121 4846661.9481102
vector 190 TestScenario.uninfected[39].veinsmobility posx ETV
vector 191 TestScenario.uninfected[39].veinsmobility posy ETV
vector 192 TestScenario.uninfected[37].veinsmobility acceleration ETV
vector 193 TestScenario.uninfected[37].veinsmobility co2emission ETV
vector 194 TestScenario.uninfected[38].veinsmobility speed ETV
vector 195 TestScenario.uninfected[40].veinsmobility posx ETV
vector 196 TestScenario.uninfected[40].veinsmobility posy ETV
vector 197 TestScenario.uninfected[38].veinsmobility acceleration ETV
vector 198 TestScenario.uninfected[38].veinsmobility co2emission ETV
vector 199 TestScenario.uninfected[39].veinsmobility speed ETV
vector 200 TestScenario.uninfected[39].veinsmobility acceleration ETV
vector 201 TestScenario.uninfected[39].veinsmobility co2emission ETV
vector 202 TestScenario.uninfected[40].veinsmobility speed ETV
vector 203 TestScenario.uninfected[41].veinsmobility posx ETV
vector 204 TestScenario.uninfected[41].veinsmobility posy ETV
vector 205 TestScenario.uninfected[42].veinsmobility posx ETV
vector 206 TestScenario.uninfected[42].veinsmobility posy ETV
vector 207 TestScenario.uninfected[40].veinsmobility acceleration ETV
vector 208 TestScenario.uninfected[40].veinsmobility co2emission ETV
vector 209 TestScenario.uninfected[43].veinsmobility posx ETV
vector 210 TestScenario.uninfected[43].veinsmobility posy ETV
vector 211 TestScenario.uninfected[41].veinsmobility speed ETV
vector 212 TestScenario.uninfected[42].veinsmobility speed ETV
vector 213 TestScenario.uninfected[44].veinsmobility posx ETV
vector 214 TestScenario.uninfected[44].veinsmobility posy ETV
vector 215 TestScenario.uninfected[41].veinsmobility acceleration ETV
vector 216 TestScenario.uninfected[41].veinsmobility co2emission ETV
vector 217 TestScenario.uninfected[42].veinsmobility acceleration ETV
vector 218 TestScenario.uninfected[42].veinsmobility co2emission ETV
vector 219 TestScenario.uninfected[43].veinsmobility speed ETV
vector 220 TestScenario.uninfected[45].veinsmobility posx ETV
vector 221 TestScenario.uninfected[45].veinsmobility posy ETV
vector 222 TestScenario.uninfected[43].veinsmobility acceleration ETV
vector 223 TestScenario.uninfected[43].veinsmobility co2emission ETV
vector 224 TestScenario.uninfected[44].veinsmobility speed ETV
vector 225 TestScenario.uninfected[46].veinsmobility posx ETV
vector 226 TestScenario.uninfected[46].veinsmobility posy ETV
vector 227 TestScenario.uninfected[44].veinsmobility acceleration ETV
vector 228 TestScenario.uninfected[44].veinsmobility co2emission ETV
vector 229 TestScenario.uninfected[45].veinsmobility speed ETV
vector 230 TestScenario.uninfected[47].veinsmobility posx ETV
vector 231 TestScenario.uninfected[47].veinsmobility posy ETV
vector 232 TestScenario.uninfected[45].veinsmobility acceleration ETV
vector 233 TestScenario.uninfected[45].veinsmobility co2emission ETV
vector 234 TestScenario.uninfected[46].veinsmobility speed ETV
vector 235 TestScenario.uninfected[48].veinsmobility posx ETV
vector 236 TestScenario.uninfected[48].veinsmobility posy ETV
vector 237 TestScenario.uninfected[46].veinsmobility acceleration ETV
vector 238 TestScenario.uninfected[46].veinsmobility co2emission ETV
vector 239 TestScenario.uninfected[47].veinsmobility speed ETV
23	20584 1223 200 59249 6 49 44 0.973 8.0209828473551 124.16050532846 511.90824308988
22	21807 1310 200 59249 6 49 44 -4.5 2.144160495922 9.5868030636805 51.868817672566
19	23117 1267 117 59249 5 49 45 4.1837425248161 13.884277872979 571.63606486048 7512.3772946899
11	24384 1158 59 59249 4 49 46 223.4 611.63399887184 17238.884116878 7393577.9207831
10	25542 975 59 59249 4 49 46 58.888880642771 226.6 9307.4780910889 1984563.974141
vector 240 TestScenario.uninfected[47].veinsmobility acceleration ETV
vector 241 TestScenario.uninfected[47].veinsmobility co2emission ETV
vector 242 TestScenario.uninfected[48].veinsmobility speed ETV
vector 243 TestScenario.uninfected[49].veinsmobility posx ETV
vector 244 TestScenario.uninfected[49].veinsmobility posy ETV
vector 245 TestScenario.uninfected[48].veinsmobility acceleration ETV
vector 246 TestScenario.uninfected[48].veinsmobility co2emission ETV
vector 247 TestScenario.uninfected[50].veinsmobility posx ETV
vector 248 TestScenario.uninfected[50].veinsmobility posy ETV
vector 249 TestScenario.uninfected[51].veinsmobility posx ETV
vector 250 TestScenario.uninfected[51].veinsmobility posy ETV
vector 251 TestScenario.uninfected[49].veinsmobility speed ETV
vector 252 TestScenario.uninfected[52].veinsmobility posx ETV
vector 253 TestScenario.uninfected[52].veinsmobility posy ETV
vector 254 TestScenario.uninfected[49].veinsmobility acceleration ETV
vector 255 TestScenario.uninfected[49].veinsmobility co2emission ETV
vector 256 TestScenario.uninfected[50].veinsmobility speed ETV
vector 257 TestScenario.uninfected[51].veinsmobility speed ETV
vector 258 TestScenario.uninfected[50].veinsmobility acceleration ETV
vector 259 TestScenario.uninfected[50].veinsmobility co2emission ETV
vector 260 TestScenario.uninfected[51].veinsmobility acceleration ETV
vector 261 TestScenario.uninfected[51].veinsmobility co2emission ETV
vector 262 TestScenario.uninfected[52].veinsmobility speed ETV
vector 263 TestScenario.uninfected[53].veinsmobility posx ETV
vector 264 TestScenario.uninfected[53].veinsmobility posy ETV
vector 265 TestScenario.uninfected[52].veinsmobility acceleration ETV
vector 266 TestScenario.uninfected[52].veinsmobility co2emission ETV
vector 267 TestScenario.uninfected[54].veinsmobility posx ETV
vector 268 TestScenario.uninfected[54].veinsmobility posy ETV
vector 269 TestScenario.uninfected[53].veinsmobility speed ETV
vector 270 TestScenario.uninfected[55].veinsmobility posx ETV
vector 271 TestScenario.uninfected[55].veinsmobility posy ETV
vector 272 TestScenario.uninfected[56].veinsmobility posx ETV
vector 273 TestScenario.uninfected[56].veinsmobility posy ETV
vector 274 TestScenario.uninfected[53].veinsmobility acceleration ETV
vector 275 TestScenario.uninfected[53].veinsmobility co2emission ETV
vector 276 TestScenario.uninfected[54].veinsmobility speed ETV
vector 277 TestScenario.uninfected[57].veinsmobility posx ETV
vector 278 TestScenario.uninfected[57].veinsmobility posy ETV
vector 279 TestScenario.uninfected[54].veinsmobility acceleration ETV
vector 280 TestScenario.uninfected[54].veinsmobility co2emission ETV
vector 281 TestScenario.uninfected[55].veinsmobility speed ETV
vector 282 TestScenario.uninfected[56].veinsmobility speed ETV
vector 283 TestScenario.uninfected[58].veinsmobility posx ETV
vector 284 TestScenario.uninfected[58].veinsmobility posy ETV
vector 285 TestScenario.uninfected[55].veinsmobility acceleration ETV
vector 286 TestScenario.uninfected[55].veinsmobility co2emission ETV
vector 287 TestScenario.uninfected[56].veinsmobility acceleration ETV
vector 288 TestScenario.uninfected[56].veinsmobility co2emission ETV
vector 289 TestScenario.uninfected[57].veinsmobility speed ETV
53	29827 1311 1087 97245 12 59 48 0.973 8.5383059240428 152.50643698181 720.47655298074
52	31138 1439 1087 97245 12 59 48 -4.5 2.0963443885594 9.7695592525306 107.96730230797
49	32577 1397 880 97245 11 59 49 3.5621496864848 13.882346863034 568.56151671668 7087.5245061545
41	33974 1290 692 97245 10 59 50 438.35435812088 793.65190910117 30409.445697906 18898143.317565
40	35264 1120 692 97245 10 59 50 423.4 623.4 25575.163645367 13473663.700587
vector 290 TestScenario.uninfected[59].veinsmobility posx ETV
vector 291 TestScenario.uninfected[59].veinsmobility posy ETV
vector 292 TestScenario.uninfected[57].veinsmobility acceleration ETV
vector 293 TestScenario.uninfected[57].veinsmobility co2emission ETV
vector 294 TestScenario.uninfected[58].veinsmobility speed ETV
vector 295 TestScenario.uninfected[60].veinsmobility posx ETV
vector 296 TestScenario.uninfected[60].veinsmobility posy ETV
vector 297 TestScenario.uninfected[58].veinsmobility acceleration ETV
vector 298 TestScenario.uninfected[58].veinsmobility co2emission ETV
vector 299 TestScenario.uninfected[59].veinsmobility speed ETV
vector 300 TestScenario.uninfected[61].veinsmobility posx ETV
vector 301 TestScenario.uninfected[61].veinsmobility posy ETV
vector 302 TestScenario.uninfected[59].veinsmobility acceleration ETV
vector 303 TestScenario.uninfected[59].veinsmobility co2emission ETV
vector 304 TestScenario.uninfected[60].veinsmobility speed ETV
73	37377 1314 2239 111469 16 62 47 0.973 8.4289382751256 133.54230809909 550.23075618848
72	38691 1429 2239 111469 16 62 47 -4.4915881423885 2.0509858806245 9.9595712312878 69.603774532184
69	40120 1376 1858 111469 15 62 48 3.8004325452788 13.889763465817 577.94405201827 7407.2452431959
61	41496 1243 1579 111469 14 62 49 26.6 411.64691181547 8254.1264651187 2374766.802847
60	42739 1047 1579 111469 14 62 49 26.6 200.9026508492 2514.0510261114 242826.46529543
8	43786 1606 31 111469 3 62 60 0.973 8.4055474696849 161.49971078741 614.85654497203
7	45392 1760 31 111469 3 62 60 -4.4842313028805 2.1980462150532 10.112658001335 72.854196907789
4	47152 1657 12 111469 2 62 61 3.722822103166 13.883749884022 768.60324989285 10130.777953286
1	48809 1170 2 111469 1 62 62 26.6 191.93320149459 2745.7394480697 225699.56236973
0	49979 1542 2 111469 1 62 62 238.33130028169 823.4 36298.218691208 23940157.802623
vector 305 TestScenario.uninfected[62].veinsmobility posx ETV
vector 306 TestScenario.uninfected[62].veinsmobility posy ETV
vector 307 TestScenario.uninfected[60].veinsmobility acceleration ETV
vector 308 TestScenario.uninfected[60].veinsmobility co2emission ETV
vector 309 TestScenario.uninfected[61].veinsmobility speed ETV
88	51852 1257 3831 116671 19 63 45 0.973 8.7859958665461 128.70774387096 548.04956408056
87	53109 1374 3831 116671 19 63 45 -4.5 2.1356933039566 9.6784023907823 54.452492583478
84	54483 1312 3208 116671 18 63 46 4.1265234313304 13.885444280603 580.92913373647 7595.4851001602
76	55795 1006 2692 116671 17 63 47 23.4 199.74227919873 2359.1810287412 238146.50642996
75	56801 1225 2692 116671 17 63 47 223.4 611.61862955957 17489.328560149 7464799.3825831
vector 310 TestScenario.uninfected[63].veinsmobility posx ETV
vector 311 TestScenario.uninfected[63].veinsmobility posy ETV
vector 312 TestScenario.uninfected[61].veinsmobility acceleration ETV
vector 313 TestScenario.uninfected[61].veinsmobility co2emission ETV
vector 314 TestScenario.uninfected[62].veinsmobility speed ETV
vector 315 TestScenario.uninfected[64].veinsmobility posx ETV
vector 316 TestScenario.uninfected[64].veinsmobility posy ETV
vector 317 TestScenario.uninfected[62].veinsmobility acceleration ETV
vector 318 TestScenario.uninfected[62].veinsmobility co2emission ETV
vector 319 TestScenario.uninfected[63].veinsmobility speed ETV
vector 320 TestScenario.uninfected[65].veinsmobility posx ETV
vector 321 TestScenario.uninfected[65].veinsmobility posy ETV
vector 322 TestScenario.uninfected[63].veinsmobility acceleration ETV
vector 323 TestScenario.uninfected[63].veinsmobility co2emission ETV
vector 324 TestScenario.uninfected[64].veinsmobility speed ETV
vector 325 TestScenario.uninfected[66].veinsmobility posx ETV
vector 326 TestScenario.uninfected[66].veinsmobility posy ETV
vector 327 TestScenario.uninfected[64].veinsmobility acceleration ETV
vector 328 TestScenario.uninfected[64].veinsmobility co2emission ETV
vector 329 TestScenario.uninfected[65].veinsmobility speed ETV
vector 330 TestScenario.uninfected[67].veinsmobility posx ETV
vector 331 TestScenario.uninfected[67].veinsmobility posy ETV
vector 332 TestScenario.uninfected[65].veinsmobility acceleration ETV
vector 333 TestScenario.uninfected[65].veinsmobility co2emission ETV
vector 334 TestScenario.uninfected[66].veinsmobility speed ETV
vector 335 TestScenario.uninfected[68].veinsmobility posx ETV
vector 336 TestScenario.uninfected[68].veinsmobility posy ETV
vector 337 TestScenario.uninfected[66].veinsmobility acceleration ETV
vector 338 TestScenario.uninfected[66].veinsmobility co2emission ETV
vector 339 TestScenario.uninfected[67].veinsmobility speed ETV
18	60012 1777 117 150069 5 69 65 0.973 8.3129427958399 205.03575822257 944.83747399493
17	61789 1938 117 150069 5 69 65 -4.5 2.5619180149538 9.9028252761503 164.82341846164
14	63727 1883 59 150069 4 69 66 3.3208015908294 13.887312619174 764.29758872219 9509.8105315645
6	65610 1510 31 150069 3 69 67 438.34775942317 623.4 38678.650474764 22597694.944291
5	67120 1528 31 150069 3 69 67 26.6 423.4 15901.596635882 5502497.5523183
vector 340 TestScenario.uninfected[69].veinsmobility posx ETV
vector 341 TestScenario.uninfected[69].veinsmobility posy ETV
vector 342 TestScenario.uninfected[67].veinsmobility acceleration ETV
vector 343 TestScenario.uninfected[67].veinsmobility co2emission ETV
vector 344 TestScenario.uninfected[68].veinsmobility speed ETV
vector 345 TestScenario.uninfected[68].veinsmobility acceleration ETV
vector 346 TestScenario.uninfected[68].veinsmobility co2emission ETV
vector 347 TestScenario.uninfected[69].veinsmobility speed ETV
33	69184 1768 405 162142 8 71 64 0.973 8.9859220848101 180.94228025818 760.67772323616
32	70952 1949 405 162142 8 71 64 -4.5 2.1023168102838 9.8671815298641 98.287921173457
29	72901 1861 291 162142 7 71 65 3.5229142080061 13.888838232881 774.18062986571 9884.0217892652
21	74762 1753 200 162142 6 71 66 31.356110592024 426.6 15543.891231446 4993095.290653
20	76515 1405 200 162142 6 71 66 623.4 803.23995238307 42483.878594459 27476732.932387
vector 348 TestScenario.uninfected[70].veinsmobility posx ETV
vector 349 TestScenario.uninfected[70].veinsmobility posy ETV
vector 350 TestScenario.uninfected[71].veinsmobility posx ETV
vector 351 TestScenario.uninfected[71].veinsmobility posy ETV
vector 352 TestScenario.uninfected[69].veinsmobility acceleration ETV
vector 353 TestScenario.uninfected[69].veinsmobility co2emission ETV
vector 354 TestScenario.uninfected[72].veinsmobility posx ETV
vector 355 TestScenario.uninfected[72].veinsmobility posy ETV
vector 356 TestScenario.uninfected[70].veinsmobility speed ETV
vector 357 TestScenario.uninfected[71].veinsmobility speed ETV
128	78567 1380 11243 174934 27 73 47 0.973 7.7728054209526 133.69084973329 560.23762075421
127	79947 1510 11243 174934 27 73 47 -3.1348835557736 2.1816201656242 9.8381115171502 66.706631576243
124	81457 1437 10076 174934 26 73 48 3.5045357730956 13.887267420811 569.07040238764 7291.5399271859
116	82894 1476 9007 174934 25 73 49 430.64085784552 798.120360127 28094.809400935 16641525.373777
115	84370 955 9007 174934 25 73 49 23.4 26.6 1209.081715691 29951.972462007
vector 358 TestScenario.uninfected[73].veinsmobility posx ETV
vector 359 TestScenario.uninfected[73].veinsmobility posy ETV
vector 360 TestScenario.uninfected[70].veinsmobility acceleration ETV
vector 361 TestScenario.uninfected[70].veinsmobility co2emission ETV
vector 362 TestScenario.uninfected[71].veinsmobility acceleration ETV
vector 363 TestScenario.uninfected[71].veinsmobility co2emission ETV
vector 364 TestScenario.uninfected[72].veinsmobility speed ETV
68	85797 1708 1858 182335 15 74 60 0.973 7.9180063362872 161.4611955558 614.56637798728
67	87505 1844 1858 182335 15 74 60 -4.5 2.2718927094387 9.8310507776223 78.685134985552
64	89349 1768 1579 182335 14 74 61 3.9614284594792 13.889054601928 773.88318389455 10229.543365262
56	91117 1665 1327 182335 13 74 62 38.36469348464 626.6 24011.575138959 11998713.65546
55	92782 1329 1327 182335 13 74 62 623.4 793.54805460937 39798.769896272 25660074.86325
vector 365 TestScenario.uninfected[74].veinsmobility posx ETV
vector 366 TestScenario.uninfected[74].veinsmobility posy ETV
vector 367 TestScenario.uninfected[72].veinsmobility acceleration ETV
vector 368 TestScenario.uninfected[72].veinsmobility co2emission ETV
vector 369 TestScenario.uninfected[73].veinsmobility speed ETV
vector 370 TestScenario.uninfected[75].veinsmobility posx ETV
vector 371 TestScenario.uninfected[75].veinsmobility posy ETV
vector 372 TestScenario.uninfected[73].veinsmobility acceleration ETV
vector 373 TestScenario.uninfected[73].veinsmobility co2emission ETV
vector 374 TestScenario.uninfected[74].veinsmobility speed ETV
63	94773 1767 1579 197175 14 76 63 0.973 8.6364354675409 182.05501382425 778.20285010337
62	96540 1927 1579 197175 14 76 63 -4.5 2.1352196676121 9.883073477292 106.46107119226
59	98467 1840 1327 197175 13 76 64 3.5885107131671 13.8882083526 763.23746527299 9748.066985813
51	100307 1532 1087 197175 12 76 65 453.00989036599 826.6 48415.841410183 36957196.305323
50	101839 1606 1087 197175 12 76 65 226.6 419.33045742646 18366.957937158 5495705.5303374
vector 375 TestScenario.uninfected[76].veinsmobility posx ETV
vector 376 TestScenario.uninfected[76].veinsmobility posy ETV
vector 377 TestScenario.uninfected[74].veinsmobility acceleration ETV
vector 378 TestScenario.uninfected[74].veinsmobility co2emission ETV
vector 379 TestScenario.uninfected[75].veinsmobility speed ETV
48	103776 1832 880 204828 11 77 67 0.973 8.2045013003743 182.47011826 770.8302431922
47	105608 2047 880 204828 11 77 67 -4.5 2.3903803224303 -0.12746586236697 132.03270542136
44	107655 1965 692 204828 10 77 68 1.8075073087567 13.88813461059 773.29326266939 9680.6344158799
36	109620 1610 534 204828 9 77 69 23.4 423.4 15840.826326203 5613364.3831586
35	111230 1706 534 204828 9 77 69 437.42118404665 811.64220992029 43208.719980777 27630997.016786
vector 380 TestScenario.uninfected[77].veinsmobility posx ETV
vector 381 TestScenario.uninfected[77].veinsmobility posy ETV
vector 382 TestScenario.uninfected[75].veinsmobility acceleration ETV
vector 383 TestScenario.uninfected[75].veinsmobility co2emission ETV
vector 384 TestScenario.uninfected[76].veinsmobility speed ETV
58	113267 1806 1327 212796 13 78 66 0.973 8.4565415584067 208.67867749739 990.51504313482
57	115073 1988 1327 212796 13 78 66 -4.5 2.5371996467444 9.9052141133488 164.12036298058
54	117061 1938 1087 212796 12 78 67 3.7103810171622 13.889966999968 765.17711143068 9461.5979058062
46	118999 1434 880 212796 11 78 68 459.51176330279 623.4 41319.082215802 25210246.649343
45	120433 1840 880 212796 11 78 68 226.6 811.61667995088 32269.383092557 18046868.902872
vector 385 TestScenario.uninfected[78].veinsmobility posx ETV
vector 386 TestScenario.uninfected[78].veinsmobility posy ETV
vector 387 TestScenario.uninfected[76].veinsmobility acceleration ETV
vector 388 TestScenario.uninfected[76].veinsmobility co2emission ETV
vector 389 TestScenario.uninfected[77].veinsmobility speed ETV
vector 390 TestScenario.uninfected[79].veinsmobility posx ETV
vector 391 TestScenario.uninfected[79].veinsmobility posy ETV
vector 392 TestScenario.uninfected[77].veinsmobility acceleration ETV
vector 393 TestScenario.uninfected[77].veinsmobility co2emission ETV
vector 394 TestScenario.uninfected[78].veinsmobility speed ETV
vector 395 TestScenario.uninfected[80].veinsmobility posx ETV
vector 396 TestScenario.uninfected[80].veinsmobility posy ETV
vector 397 TestScenario.uninfected[78].veinsmobility acceleration ETV
vector 398 TestScenario.uninfected[78].veinsmobility co2emission ETV
vector 399 TestScenario.uninfected[79].veinsmobility speed ETV
vector 400 TestScenario.uninfected[81].veinsmobility posx ETV
vector 401 TestScenario.uninfected[81].veinsmobility posy ETV
vector 402 TestScenario.uninfected[79].veinsmobility acceleration ETV
vector 403 TestScenario.uninfected[79].veinsmobility co2emission ETV
vector 404 TestScenario.uninfected[80].veinsmobility speed ETV
vector 405 TestScenario.uninfected[82].veinsmobility posx ETV
vector 406 TestScenario.uninfected[82].veinsmobility posy ETV
vector 407 TestScenario.uninfected[80].veinsmobility acceleration ETV
vector 408 TestScenario.uninfected[80].veinsmobility co2emission ETV
vector 409 TestScenario.uninfected[81].veinsmobility speed ETV
vector 410 TestScenario.uninfected[83].veinsmobility posx ETV
vector 411 TestScenario.uninfected[83].veinsmobility posy ETV
vector 412 TestScenario.uninfected[81].veinsmobility acceleration ETV
vector 413 TestScenario.uninfected[81].veinsmobility co2emission ETV
vector 414 TestScenario.uninfected[82].veinsmobility speed ETV
346	124259 434 162142 257799 71 84 14 1.8178179571939 7.5990674890621 50.12816972816 247.89065631112
345	124693 455 162142 257799 71 84 14 -0.059309005930555 2.3079511306761 9.8128022806517 19.588084477254
344	125148 463 156189 257799 70 84 15 3.9777942875928 13.874615608731 178.92356011237 2284.5645609653
336	125611 320 150069 257799 69 84 16 26.6 26.6 425.6 11320.96
335	125931 496 150069 257799 69 84 16 34.398353237133 194.57534631033 1582.3121293344 202637.18878541
28	126427 2169 291 257799 7 84 78 0.973 8.3551301818034 230.7766567467 1035.5798677658
27	128596 2372 291 257799 7 84 78 -4.5 2.2168796120072 9.4114686682275 163.72863231392
24	130968 2279 200 257799 6 84 79 2.4302442712521 13.885657052209 963.70464090776 12413.290410133
16	133247 2144 117 257799 5 84 80 226.6 811.65841929311 34152.283323562 17706279.940819
15	135391 1711 117 257799 5 84 80 426.6 623.4 38772.026052093 19336456.257442
vector 415 TestScenario.uninfected[84].veinsmobility posx ETV
vector 416 TestScenario.uninfected[84].veinsmobility posy ETV
vector 417 TestScenario.uninfected[82].veinsmobility acceleration ETV
vector 418 TestScenario.uninfected[82].veinsmobility co2emission ETV
vector 419 TestScenario.uninfected[83].veinsmobility speed ETV
vector 420 TestScenario.uninfected[83].veinsmobility acceleration ETV
vector 421 TestScenario.uninfected[83].veinsmobility co2emission ETV
vector 422 TestScenario.uninfected[84].veinsmobility speed ETV
vector 423 TestScenario.uninfected[85].veinsmobility posx ETV
vector 424 TestScenario.uninfected[85].veinsmobility posy ETV
vector 425 TestScenario.uninfected[84].veinsmobility acceleration ETV
vector 426 TestScenario.uninfected[84].veinsmobility co2emission ETV
113	137905 1883 7919 281745 24 87 64 0.973 8.2909371665769 185.73691460525 776.57629688532
112	139788 2023 7919 281745 24 87 64 -4.5 2.4904371879902 9.8799609625573 119.80048516543
109	141811 1972 6903 281745 23 87 65 3.8712742081177 13.889317078406 775.74661500396 9867.8410519726
101	143783 1506 6060 281745 22 87 66 26.6 226.6 7424.3889679063 1379969.2167983
100	145289 1848 6060 281745 22 87 66 238.35795385615 800.4523811862 31349.780597541 16364444.088641
vector 427 TestScenario.uninfected[86].veinsmobility posx ETV
vector 428 TestScenario.uninfected[86].veinsmobility posy ETV
vector 429 TestScenario.uninfected[85].veinsmobility speed ETV
vector 430 TestScenario.uninfected[87].veinsmobility posx ETV
vector 431 TestScenario.uninfected[87].veinsmobility posy ETV
vector 432 TestScenario.uninfected[88].veinsmobility posx ETV
vector 433 TestScenario.uninfected[88].veinsmobility posy ETV
vector 434 TestScenario.uninfected[85].veinsmobility acceleration ETV
vector 435 TestScenario.uninfected[85].veinsmobility co2emission ETV
vector 436 TestScenario.uninfected[86].veinsmobility speed ETV
286	147784 913 97245 296782 59 89 31 0.973 8.4846993411572 98.849981901313 469.57904457386
285	148697 1004 97245 296782 59 89 31 -4.05665566982 2.0311643227795 10.604275275003 54.471987396313
281	149701 985 92421 296782 58 89 32 3.1932960020477 13.888910891963 375.28340983294 4703.0568875144
271	150686 840 88070 296782 57 89 33 655.24868860887 823.4 26046.492919629 20649269.376267
270	151526 889 88070 296782 57 89 33 626.6 816.45568838723 22792.723366312 15919643.597682
vector 437 TestScenario.uninfected[86].veinsmobility acceleration ETV
vector 438 TestScenario.uninfected[86].veinsmobility co2emission ETV
vector 439 TestScenario.uninfected[87].veinsmobility speed ETV
vector 440 TestScenario.uninfected[88].veinsmobility speed ETV
vector 441 TestScenario.uninfected[89].veinsmobility posx ETV
vector 442 TestScenario.uninfected[89].veinsmobility posy ETV
vector 443 TestScenario.uninfected[90].veinsmobility posx ETV
vector 444 TestScenario.uninfected[90].veinsmobility posy ETV
vector 445 TestScenario.uninfected[87].veinsmobility acceleration ETV
vector 446 TestScenario.uninfected[87].veinsmobility co2emission ETV
vector 447 TestScenario.uninfected[88].veinsmobility acceleration ETV
vector 448 TestScenario.uninfected[88].veinsmobility co2emission ETV
vector 449 TestScenario.uninfected[91].veinsmobility posx ETV
vector 450 TestScenario.uninfected[91].veinsmobility posy ETV
vector 451 TestScenario.uninfected[89].veinsmobility speed ETV
vector 452 TestScenario.uninfected[90].veinsmobility speed ETV
388	153472 434 220634 323124 79 92 14 1.7414827863845 7.7087818336073 50.189756919354 249.08308666088
387	153906 455 220634 323124 79 92 14 -0.082562894797885 2.2136552813277 9.7545622860926 18.982505438642
384	154361 464 212796 323124 78 92 15 4.1240932113043 13.878655497397 178.82869930037 2281.5185250972
376	154825 336 204828 323124 77 92 16 826.6 826.6 13225.6 10932280.96
375	155161 494 204828 323124 77 92 16 34.365157779233 194.26964878559 1579.5375279431 201874.48524406
vector 453 TestScenario.uninfected[92].veinsmobility posx ETV
vector 454 TestScenario.uninfected[92].veinsmobility posy ETV
vector 455 TestScenario.uninfected[89].veinsmobility acceleration ETV
vector 456 TestScenario.uninfected[89].veinsmobility co2emission ETV
vector 457 TestScenario.uninfected[90].veinsmobility acceleration ETV
vector 458 TestScenario.uninfected[90].veinsmobility co2emission ETV
vector 459 TestScenario.uninfected[91].veinsmobility speed ETV
218	156127 1430 47270 332181 45 93 49 0.973 8.3281421442058 156.59384604453 744.90869801297
217	157557 1560 47270 332181 45 93 49 -4.5 2.3430449198093 9.6961161090554 123.62336792634
212	159117 1531 44543 332181 44 93 50 3.9530829754764 13.888142702524 566.5221412799 6996.5874512214
206	160648 1243 41648 332181 43 93 51 226.6 426.6 16083.249159906 5472278.9266963
205	161891 1410 41648 332181 43 93 51 438.37868692803 790.30705602023 30917.206439021 19135388.757498
vector 460 TestScenario.uninfected[93].veinsmobility posx ETV
vector 461 TestScenario.uninfected[93].veinsmobility posy ETV
vector 462 TestScenario.uninfected[91].veinsmobility acceleration ETV
vector 463 TestScenario.uninfected[91].veinsmobility co2emission ETV
vector 464 TestScenario.uninfected[92].veinsmobility speed ETV
vector 465 TestScenario.uninfected[94].veinsmobility posx ETV
vector 466 TestScenario.uninfected[94].veinsmobility posy ETV
vector 467 TestScenario.uninfected[92].veinsmobility acceleration ETV
vector 468 TestScenario.uninfected[92].veinsmobility co2emission ETV
vector 469 TestScenario.uninfected[93].veinsmobility speed ETV
vector 470 TestScenario.uninfected[93].veinsmobility acceleration ETV
vector 471 TestScenario.uninfected[93].veinsmobility co2emission ETV
vector 472 TestScenario.uninfected[94].veinsmobility speed ETV
83	164168 2205 3208 360025 18 96 79 0.973 8.7046958661188 242.37468640916 1107.3178850645
82	166373 2428 3208 360025 18 96 79 -4.5 2.3653666814812 9.6747691130272 165.95349786399
79	168801 2339 2692 360025 17 96 80 4.1498461646766 13.8870143887 962.98596838915 12223.768835198
71	171140 1884 2239 360025 16 96 81 423.4 623.4 43771.607035763 24245015.687338
70	173024 2072 2239 360025 16 96 81 26.6 611.63982373774 24905.411992668 10618001.143646
vector 473 TestScenario.uninfected[95].veinsmobility posx ETV
vector 474 TestScenario.uninfected[95].veinsmobility posy ETV
vector 475 TestScenario.uninfected[96].veinsmobility posx ETV
vector 476 TestScenario.uninfected[96].veinsmobility posy ETV
vector 477 TestScenario.uninfected[94].veinsmobility acceleration ETV
vector 478 TestScenario.uninfected[94].veinsmobility co2emission ETV
vector 479 TestScenario.uninfected[97].veinsmobility posx ETV
vector 480 TestScenario.uninfected[97].veinsmobility posy ETV
vector 481 TestScenario.uninfected[95].veinsmobility speed ETV
vector 482 TestScenario.uninfected[96].veinsmobility speed ETV
vector 483 TestScenario.uninfected[98].veinsmobility posx ETV
vector 484 TestScenario.uninfected[98].veinsmobility posy ETV
vector 485 TestScenario.uninfected[95].veinsmobility acceleration ETV
vector 486 TestScenario.uninfected[95].veinsmobility co2emission ETV
vector 487 TestScenario.uninfected[96].veinsmobility acceleration ETV
vector 488 TestScenario.uninfected[96].veinsmobility co2emission ETV
vector 489 TestScenario.uninfected[97].veinsmobility speed ETV
vector 490 TestScenario.uninfected[99].veinsmobility posx ETV
vector 491 TestScenario.uninfected[99].veinsmobility posy ETV
vector 492 TestScenario.uninfected[97].veinsmobility acceleration ETV
vector 493 TestScenario.uninfected[97].veinsmobility co2emission ETV
vector 494 TestScenario.uninfected[98].veinsmobility speed ETV
vector 495 TestScenario.uninfected[100].veinsmobility posx ETV
vector 496 TestScenario.uninfected[100].veinsmobility posy ETV
vector 497 TestScenario.uninfected[98].veinsmobility acceleration ETV
vector 498 TestScenario.uninfected[98].veinsmobility co2emission ETV
vector 499 TestScenario.uninfected[99].veinsmobility speed ETV
vector 500 TestScenario.uninfected[101].veinsmobility posx ETV
vector 501 TestScenario.uninfected[101].veinsmobility posy ETV
vector 502 TestScenario.uninfected[99].veinsmobility acceleration ETV
vector 503 TestScenario.uninfected[99].veinsmobility co2emission ETV
vector 504 TestScenario.uninfected[100].veinsmobility speed ETV
vector 505 TestScenario.uninfected[100].veinsmobility acceleration ETV
vector 506 TestScenario.uninfected[100].veinsmobility co2emission ETV
vector 507 TestScenario.uninfected[101].veinsmobility speed ETV
vector 508 TestScenario.uninfected[102].veinsmobility posx ETV
vector 509 TestScenario.uninfected[102].veinsmobility posy ETV
vector 510 TestScenario.uninfected[101].veinsmobility acceleration ETV
vector 511 TestScenario.uninfected[101].veinsmobility co2emission ETV
259	177692 1468 76288 439268 54 104 51 0.973 8.5853815766369 149.27683579321 680.11769350268
258	179160 1646 76288 439268 54 104 51 -4.5 2.122085977972 3.6138596236831 113.6981267992
256	180806 1607 72663 439268 53 104 52 2.9350091553088 13.888244064159 571.10023563309 6909.0391730179
248	182413 1300 69239 439268 52 104 53 237.45182079703 423.4 20381.609707931 8057876.6324861
247	183713 1458 69239 439268 52 104 53 245.27199021574 623.4 25988.063230363 13748948.751145
vector 512 TestScenario.uninfected[103].veinsmobility posx ETV
vector 513 TestScenario.uninfected[103].veinsmobility posy ETV
vector 514 TestScenario.uninfected[102].veinsmobility speed ETV
vector 515 TestScenario.uninfected[104].veinsmobility posx ETV
vector 516 TestScenario.uninfected[104].veinsmobility posy ETV
vector 517 TestScenario.uninfected[105].veinsmobility posx ETV
vector 518 TestScenario.uninfected[105].veinsmobility posy ETV
vector 519 TestScenario.uninfected[102].veinsmobility acceleration ETV
vector 520 TestScenario.uninfected[102].veinsmobility co2emission ETV
vector 521 TestScenario.uninfected[103].veinsmobility speed ETV
368	185828 958 189606 459707 75 106 32 0.973 7.7144412421911 102.3963488565 493.5615191994
367	186786 1040 189606 459707 75 106 32 -3.0724804433673 2.094641782703 9.7343562477501 63.800781480656
364	187826 1029 182335 459707 74 106 33 4.0897520432854 13.880918310215 373.95412439681 4611.6322274373
355	188855 869 174934 459707 73 106 34 251.63721281399 423.4 13223.580871655 5240300.969877
354	189724 916 174934 459707 73 106 34 226.6 411.6653323591 9680.4868856592 2921360.6497879
vector 522 TestScenario.uninfected[106].veinsmobility posx ETV
vector 523 TestScenario.uninfected[106].veinsmobility posy ETV
vector 524 TestScenario.uninfected[103].veinsmobility acceleration ETV
vector 525 TestScenario.uninfected[103].veinsmobility co2emission ETV
vector 526 TestScenario.uninfected[104].veinsmobility speed ETV
vector 527 TestScenario.uninfected[105].veinsmobility speed ETV
vector 528 TestScenario.uninfected[107].veinsmobility posx ETV
vector 529 TestScenario.uninfected[107].veinsmobility posy ETV
vector 530 TestScenario.uninfected[104].veinsmobility acceleration ETV
vector 531 TestScenario.uninfected[104].veinsmobility co2emission ETV
vector 532 TestScenario.uninfected[105].veinsmobility acceleration ETV
vector 533 TestScenario.uninfected[105].veinsmobility co2emission ETV
vector 534 TestScenario.uninfected[106].veinsmobility speed ETV
vector 535 TestScenario.uninfected[108].veinsmobility posx ETV
vector 536 TestScenario.uninfected[108].veinsmobility posy ETV
vector 537 TestScenario.uninfected[106].veinsmobility acceleration ETV
vector 538 TestScenario.uninfected[106].veinsmobility co2emission ETV
vector 539 TestScenario.uninfected[107].veinsmobility speed ETV
153	191856 2335 18146 494053 32 109 78 0.973 8.2429653153118 213.70173278917 825.22115951445
152	194191 2542 18146 494053 32 109 78 -4.5 2.3459646792058 9.6908479482233 112.21133363918
149	196733 2419 16547 494053 31 109 79 4.1132818567921 13.881166093796 981.83589056536 12777.114394433
141	199152 1988 15059 494053 30 109 80 423.4 826.6 51765.995294889 35909301.438604
140	201140 2165 15059 494053 30 109 80 223.4 602.38209805821 25322.981642875 9001411.852842
vector 540 TestScenario.uninfected[109].veinsmobility posx ETV
vector 541 TestScenario.uninfected[109].veinsmobility posy ETV
vector 542 TestScenario.uninfected[107].veinsmobility acceleration ETV
vector 543 TestScenario.uninfected[107].veinsmobility co2emission ETV
vector 544 TestScenario.uninfected[108].veinsmobility speed ETV
vector 545 TestScenario.uninfected[110].veinsmobility posx ETV
vector 546 TestScenario.uninfected[110].veinsmobility posy ETV
vector 547 TestScenario.uninfected[108].veinsmobility acceleration ETV
vector 548 TestScenario.uninfected[108].veinsmobility co2emission ETV
vector 549 TestScenario.uninfected[109].veinsmobility speed ETV
vector 550 TestScenario.uninfected[111].veinsmobility posx ETV
vector 551 TestScenario.uninfected[111].veinsmobility posy ETV
vector 552 TestScenario.uninfected[109].veinsmobility acceleration ETV
vector 553 TestScenario.uninfected[109].veinsmobility co2emission ETV
vector 554 TestScenario.uninfected[110].veinsmobility speed ETV
vector 555 TestScenario.uninfected[112].veinsmobility posx ETV
vector 556 TestScenario.uninfected[112].veinsmobility posy ETV
vector 557 TestScenario.uninfected[110].veinsmobility acceleration ETV
vector 558 TestScenario.uninfected[110].veinsmobility co2emission ETV
vector 559 TestScenario.uninfected[111].veinsmobility speed ETV
148	204649 2444 16547 543666 31 113 83 0.973 8.4933803644772 239.24849491859 1024.9321476366
147	207093 2663 16547 543666 31 113 83 -4.5 2.199884302651 9.9163230694439 161.69976158581
144	209756 2576 15059 543666 30 113 84 1.7366112296531 13.887128388127 985.1708997555 12490.319208289
136	212332 2259 13722 543666 29 113 85 223.4 626.6 35284.661155732 16929979.459383
135	214591 2185 13722 543666 29 113 85 223.4 426.6 29565.111643357 10884970.395424
vector 560 TestScenario.uninfected[113].veinsmobility posx ETV
vector 561 TestScenario.uninfected[113].veinsmobility posy ETV
vector 562 TestScenario.uninfected[111].veinsmobility acceleration ETV
vector 563 TestScenario.uninfected[111].veinsmobility co2emission ETV
vector 564 TestScenario.uninfected[112].veinsmobility speed ETV
vector 565 TestScenario.uninfected[114].veinsmobility posx ETV
vector 566 TestScenario.uninfected[114].veinsmobility posy ETV
vector 567 TestScenario.uninfected[112].veinsmobility acceleration ETV
vector 568 TestScenario.uninfected[112].veinsmobility co2emission ETV
vector 569 TestScenario.uninfected[113].veinsmobility speed ETV
246	217448 1907 65927 570007 51 115 65 0.973 8.2137606241427 200.82520834125 931.41797977711
245	219355 2109 65927 570007 51 115 65 -4.5 2.5676159498049 9.7721068284368 138.39265386744
242	221464 2047 62711 570007 50 115 66 3.3383150107331 13.88604097649 767.57268380166 9582.8025630578
236	223511 1561 59249 570007 49 115 67 457.40401733059 623.4 40667.753056395 24791363.750962
235	225072 1947 59249 570007 49 115 67 226.6 811.60394732285 31449.338060074 17569364.403414
vector 570 TestScenario.uninfected[115].veinsmobility posx ETV
vector 571 TestScenario.uninfected[115].veinsmobility posy ETV
vector 572 TestScenario.uninfected[113].veinsmobility acceleration ETV
vector 573 TestScenario.uninfected[113].veinsmobility co2emission ETV
vector 574 TestScenario.uninfected[114].veinsmobility speed ETV
vector 575 TestScenario.uninfected[116].veinsmobility posx ETV
vector 576 TestScenario.uninfected[116].veinsmobility posy ETV
vector 577 TestScenario.uninfected[114].veinsmobility acceleration ETV
vector 578 TestScenario.uninfected[114].veinsmobility co2emission ETV
vector 579 TestScenario.uninfected[115].veinsmobility speed ETV
vector 580 TestScenario.uninfected[115].veinsmobility acceleration ETV
vector 581 TestScenario.uninfected[115].veinsmobility co2emission ETV
vector 582 TestScenario.uninfected[116].veinsmobility speed ETV
188	227899 2378 31948 608745 39 118 80 0.973 7.9579819135469 234.99584717801 993.18736223903
187	230277 2593 31948 608745 39 118 80 -4.5 2.1338147374103 10.147542981939 161.25666752856
184	232870 2496 29775 608745 38 118 81 3.6999789108844 13.889567791808 968.94042046687 12340.879339989
176	235366 2240 27745 608745 37 118 82 423.4 823.4 53298.373342426 36566836.357589
175	237606 2053 27745 608745 37 118 82 452.64710290479 823.4 55628.923301818 38636024.196873
vector 583 TestScenario.uninfected[117].veinsmobility posx ETV
vector 584 TestScenario.uninfected[117].veinsmobility posy ETV
vector 585 TestScenario.uninfected[118].veinsmobility posx ETV
vector 586 TestScenario.uninfected[118].veinsmobility posy ETV
vector 587 TestScenario.uninfected[116].veinsmobility acceleration ETV
vector 588 TestScenario.uninfected[116].veinsmobility co2emission ETV
275	240058 1884 88070 621464 57 119 63 0.973 8.6184554423904 166.77888124195 643.25746568108
274	241942 2090 88070 621464 57 119 63 -3.1234508807144 2.3238489568746 4.8233767526865 84.03313988212
269	244032 1993 83829 621464 56 119 64 3.8271455551157 13.889876513225 784.83404684125 10136.795698777
264	246025 1661 79916 621464 55 119 65 23.4 407.76370597477 7531.8117637758 1932299.0307365
263	247686 1725 79916 621464 55 119 65 423.4 815.64312020103 34613.239098381 19693837.051502
vector 589 TestScenario.uninfected[119].veinsmobility posx ETV
vector 590 TestScenario.uninfected[119].veinsmobility posy ETV
vector 591 TestScenario.uninfected[117].veinsmobility speed ETV
vector 592 TestScenario.uninfected[118].veinsmobility speed ETV
vector 593 TestScenario.uninfected[117].veinsmobility acceleration ETV
vector 594 TestScenario.uninfected[117].veinsmobility co2emission ETV
vector 595 TestScenario.uninfected[118].veinsmobility acceleration ETV
vector 596 TestScenario.uninfected[118].veinsmobility co2emission ETV
vector 597 TestScenario.uninfected[119].veinsmobility speed ETV
vector 598 TestScenario.uninfected[119].veinsmobility acceleration ETV
vector 599 TestScenario.uninfected[119].veinsmobility co2emission ETV
vector 600 TestScenario.uninfected[120].veinsmobility posx ETV
vector 601 TestScenario.uninfected[120].veinsmobility posy ETV
vector 602 TestScenario.uninfected[121].veinsmobility posx ETV
vector 603 TestScenario.uninfected[121].veinsmobility posy ETV
vector 604 TestScenario.uninfected[120].veinsmobility speed ETV
223	250484 2378 50126 687704 46 124 79 0.973 8.2221193205835 216.27909435517 846.64307231742
222	252862 2602 50126 687704 46 124 79 -4.4238629258816 2.1271289568488 9.911872950675 119.79969920225
219	255464 2473 47270 687704 45 124 80 3.3481344635737 13.889887864657 963.98098624204 12438.202409382
210	257937 2016 44543 687704 44 124 81 452.12322917481 826.6 61564.279686087 47771573.605344
209	259953 2196 44543 687704 44 124 81 26.6 419.16020266052 14502.240191857 4335429.3908205
198	262149 2464 36568 687704 41 124 84 0.973 8.4109021514188 257.65563708365 1171.331172975
197	264613 2735 36568 687704 41 124 84 -4.1627406757348 2.4720552741829 9.7420908308766 192.59172359651
194	267348 2632 34296 687704 40 124 85 3.6491827782243 13.889449696275 964.59922484916 11851.614312744
186	269980 2139 31948 687704 39 124 86 226.6 426.6 29822.084698587 10970474.699494
185	272119 2395 31948 687704 39 124 86 38.34901859849 623.4 33569.29067832 15939466.649427
193	274514 2478 34296 687704 40 124 85 0.973 9.1702128466764 247.07590351837 1072.0779628214
192	276992 2763 34296 687704 40 124 85 -3.3384938990306 2.1920772606158 9.840089720408 148.71816705228
189	279755 2660 31948 687704 39 124 86 1.5180740140375 13.882353288957 979.62772152577 12163.186036769
181	282415 2564 29775 687704 38 124 87 38.389116823078 826.6 43423.829554779 27683347.346625
180	284979 1977 29775 687704 38 124 87 623.4 799.0754518086 55456.386775688 35479286.218004
vector 605 TestScenario.uninfected[122].veinsmobility posx ETV
vector 606 TestScenario.uninfected[122].veinsmobility posy ETV
vector 607 TestScenario.uninfected[123].veinsmobility posx ETV
vector 608 TestScenario.uninfected[123].veinsmobility posy ETV
vector 609 TestScenario.uninfected[120].veinsmobility acceleration ETV
vector 610 TestScenario.uninfected[120].veinsmobility co2emission ETV
vector 611 TestScenario.uninfected[121].veinsmobility speed ETV
93	287420 3086 4531 701873 20 125 106 0.973 8.560646659091 269.14201839118 960.86037039375
92	290506 3370 4531 701873 20 125 106 -4.5 2.429636170899 9.8434419924314 106.77446119016
89	293876 3175 3831 701873 19 125 107 3.8893423576175 13.889037982535 1367.6606230313 18120.223119345
81	297051 2913 3208 701873 18 125 108 52.856974011438 823.4 65049.965883045 45514147.628956
80	299964 2454 3208 701873 18 125 108 226.6 623.4 38576.457153342 16772148.20604
vector 612 TestScenario.uninfected[124].veinsmobility posx ETV
vector 613 TestScenario.uninfected[124].veinsmobility posy ETV
vector 614 TestScenario.uninfected[125].veinsmobility posx ETV
vector 615 TestScenario.uninfected[125].veinsmobility posy ETV
vector 616 TestScenario.uninfected[121].veinsmobility acceleration ETV
vector 617 TestScenario.uninfected[121].veinsmobility co2emission ETV
vector 618 TestScenario.uninfected[122].veinsmobility speed ETV
vector 619 TestScenario.uninfected[123].veinsmobility speed ETV
vector 620 TestScenario.uninfected[126].veinsmobility posx ETV
vector 621 TestScenario.uninfected[126].veinsmobility posy ETV
vector 622 TestScenario.uninfected[122].veinsmobility acceleration ETV
vector 623 TestScenario.uninfected[122].veinsmobility co2emission ETV
vector 624 TestScenario.uninfected[123].veinsmobility acceleration ETV
vector 625 TestScenario.uninfected[123].veinsmobility co2emission ETV
vector 626 TestScenario.uninfected[124].veinsmobility speed ETV
vector 627 TestScenario.uninfected[125].veinsmobility speed ETV
333	303491 1843 143838 729448 68 127 60 0.973 8.6254481958262 163.89936346876 661.36257513935
332	305334 2012 143838 729448 68 127 60 -4.4795534543966 2.0853920259047 9.7644338543514 65.80785437313
329	307346 1915 138344 729448 67 127 61 4.0195501668997 13.889900360159 781.13448295291 10335.193501662
321	309261 1793 132650 729448 66 127 62 23.4 611.62431285008 16327.648352708 7000444.8358122
320	311054 1479 132650 729448 66 127 62 651.00412315995 826.6 50028.279206689 40490796.175301
vector 628 TestScenario.uninfected[124].veinsmobility acceleration ETV
vector 629 TestScenario.uninfected[124].veinsmobility co2emission ETV
vector 630 TestScenario.uninfected[125].veinsmobility acceleration ETV
vector 631 TestScenario.uninfected[125].veinsmobility co2emission ETV
vector 632 TestScenario.uninfected[126].veinsmobility speed ETV
vector 633 TestScenario.uninfected[126].veinsmobility acceleration ETV
vector 634 TestScenario.uninfected[126].veinsmobility co2emission ETV
328	313027 1906 138344 759535 67 129 63 0.973 8.1165034668589 175.56307243017 696.10817156064
327	314933 2068 138344 759535 67 129 63 -4.5 2.2113374444935 9.8358045553266 79.620919100342
324	317001 2007 132650 759535 66 129 64 4.0098870468103 13.889216929397 778.73119793579 9966.1967087669
316	319008 2040 127320 759535 65 129 65 52.124085535765 811.65797646695 28595.566544342 15991469.578795
315	321048 1395 127320 759535 65 129 65 626.6 626.6 40729 25520791.4
393	322443 1509 227692 759535 80 129 50 0.973 8.6197232342798 157.7949086293 738.28843453178
392	323952 1653 227692 759535 80 129 50 -3.6765713079166 2.3156432247465 9.8104130828314 112.2269243875
389	325605 1605 220634 759535 79 129 51 3.7976142693937 13.880949763099 579.21488346149 7152.4596404141
381	327210 1271 212796 759535 78 129 52 623.4 798.17836501808 33624.962028259 21859701.989391
380	328481 1496 212796 759535 78 129 52 23.4 411.63155759263 8963.7478907149 2544991.4440149
vector 635 TestScenario.uninfected[127].veinsmobility posx ETV
vector 636 TestScenario.uninfected[127].veinsmobility posy ETV
233	330105 2444 56103 774176 48 130 83 0.973 8.7271069400117 235.64191455471 1017.6820603511
232	332549 2682 56103 774176 48 130 83 -4.5 2.2775054089818 3.2958360935003 180.09991387304
229	335231 2613 53123 774176 47 130 84 4.0093900600377 13.881149908537 970.76605105658 12066.748176359
221	337844 2327 50126 774176 46 130 85 226.6 626.6 34679.805814893 16227483.497229
220	340171 2159 50126 774176 46 130 85 26.6 410.41598280422 15467.442682351 3833334.9256316
vector 637 TestScenario.uninfected[128].veinsmobility posx ETV
vector 638 TestScenario.uninfected[128].veinsmobility posy ETV
vector 639 TestScenario.uninfected[127].veinsmobility speed ETV
vector 640 TestScenario.uninfected[129].veinsmobility posx ETV
vector 641 TestScenario.uninfected[129].veinsmobility posy ETV
vector 642 TestScenario.uninfected[130].veinsmobility posx ETV
vector 643 TestScenario.uninfected[130].veinsmobility posy ETV
vector 644 TestScenario.uninfected[127].veinsmobility acceleration ETV
vector 645 TestScenario.uninfected[127].veinsmobility co2emission ETV
vector 646 TestScenario.uninfected[128].veinsmobility speed ETV
38	342987 3419 534 803771 9 132 124 0.973 8.4357239683725 354.2539633726 1543.8942264068
37	346406 3794 534 803771 9 132 124 -4.5 2.381383196041 7.6768968122287 274.90269292409
34	350200 3694 405 803771 8 132 125 0.55899670750783 13.88800998922 1368.1542921739 16723.395881161
26	353894 3153 291 803771 7 132 126 230.6489579221 805.92461266043 55408.826825578 26359750.602387
25	357047 3079 291 803771 7 132 126 223.4 826.6 66192.560970807 42951906.485036
vector 647 TestScenario.uninfected[131].veinsmobility posx ETV
vector 648 TestScenario.uninfected[131].veinsmobility posy ETV
vector 649 TestScenario.uninfected[132].veinsmobility posx ETV
vector 650 TestScenario.uninfected[132].veinsmobility posy ETV
vector 651 TestScenario.uninfected[128].veinsmobility acceleration ETV
vector 652 TestScenario.uninfected[128].veinsmobility co2emission ETV
vector 653 TestScenario.uninfected[129].veinsmobility speed ETV
vector 654 TestScenario.uninfected[130].veinsmobility speed ETV
vector 655 TestScenario.uninfected[129].veinsmobility acceleration ETV
vector 656 TestScenario.uninfected[129].veinsmobility co2emission ETV
vector 657 TestScenario.uninfected[130].veinsmobility acceleration ETV
vector 658 TestScenario.uninfected[130].veinsmobility co2emission ETV
vector 659 TestScenario.uninfected[131].veinsmobility speed ETV
vector 660 TestScenario.uninfected[132].veinsmobility speed ETV
vector 661 TestScenario.uninfected[133].veinsmobility posx ETV
vector 662 TestScenario.uninfected[133].veinsmobility posy ETV
vector 663 TestScenario.uninfected[134].veinsmobility posx ETV
vector 664 TestScenario.uninfected[134].veinsmobility posy ETV
vector 665 TestScenario.uninfected[131].veinsmobility acceleration ETV
vector 666 TestScenario.uninfected[131].veinsmobility co2emission ETV
vector 667 TestScenario.uninfected[132].veinsmobility acceleration ETV
vector 668 TestScenario.uninfected[132].veinsmobility co2emission ETV
133	361613 3263 12407 846989 28 135 108 0.973 8.110722192951 292.22460600312 1112.9217609652
132	364876 3559 12407 846989 28 135 108 -4.4923857159866 2.223119044567 9.8188938024277 167.86859711982
129	368435 3364 11243 846989 27 135 109 3.8817818003288 13.887010531228 1358.6929476398 17741.970709717
121	371799 2620 10076 846989 26 135 110 26.6 223.4 9175.5695445615 1437865.1371681
120	374419 3031 10076 846989 26 135 110 26.6 823.4 50271.617548773 33457063.904833
vector 669 TestScenario.uninfected[135].veinsmobility posx ETV
vector 670 TestScenario.uninfected[135].veinsmobility posy ETV
vector 671 TestScenario.uninfected[133].veinsmobility speed ETV
vector 672 TestScenario.uninfected[134].veinsmobility speed ETV
531	377708 921 482130 861824 108 136 29 1.7073120023846 7.7281645870949 80.654184278796 302.96572465074
530	378629 986 482130 861824 108 136 29 -0.093057029901537 2.0937925695558 10.64875041649 19.422806340051
526	379615 958 471257 861824 107 136 30 3.1543896927146 13.884780148012 378.42131288698 5015.3985679684
516	380573 988 459707 861824 106 136 31 237.54783560282 596.25092460875 12228.084613079 5239104.1566196
515	381561 682 459707 861824 106 136 31 623.4 623.4 19325.4 12047454.36
vector 673 TestScenario.uninfected[133].veinsmobility acceleration ETV
vector 674 TestScenario.uninfected[133].veinsmobility co2emission ETV
vector 675 TestScenario.uninfected[134].veinsmobility acceleration ETV
vector 676 TestScenario.uninfected[134].veinsmobility co2emission ETV
vector 677 TestScenario.uninfected[135].veinsmobility speed ETV
520	382594 981 459707 876229 106 137 32 0.973 9.3709420651563 103.70122917913 505.06593967447
519	383575 1064 459707 876229 106 137 32 -3.1139694151676 2.3646322243474 9.9842320611866 64.931603299334
514	384639 1054 449202 876229 105 137 33 3.8595246506736 13.87993302908 371.53007679177 4571.2460067423
509	385693 896 439268 876229 104 137 34 253.86853124966 423.4 13252.701359611 5259834.6669529
508	386589 945 439268 876229 104 137 34 26.6 211.63488729557 2911.0584555825 415926.02114942
vector 678 TestScenario.uninfected[136].veinsmobility posx ETV
vector 679 TestScenario.uninfected[136].veinsmobility posy ETV
vector 680 TestScenario.uninfected[135].veinsmobility acceleration ETV
vector 681 TestScenario.uninfected[135].veinsmobility co2emission ETV
228	387805 2808 53123 890044 47 138 92 0.973 8.4955779839577 240.55960603229 885.5737328837
227	390613 3054 53123 890044 47 138 92 -4.336594141486 2.1250001449953 9.8419930965511 104.83751674147
224	393667 2898 50126 890044 46 138 93 4.0116367090552 13.889258939452 1180.2354139339 15562.836532089
214	396565 2321 47270 890044 45 138 94 426.6 826.6 65854.736885612 48603193.700392
213	398886 2640 47270 890044 45 138 94 34.375117776587 800.57832485409 44999.86288858 26039011.528861
238	401526 2760 59249 890044 49 138 90 0.973 8.045558699 220.91520156184 735.93321275826
237	404286 3018 59249 890044 49 138 90 -3.2247003621755 2.1621916417612 9.8523974626546 66.783651149412
234	407304 2831 56103 890044 48 138 91 3.5939569855188 13.885755962622 1176.58294534 15705.084889929
226	410135 2562 53123 890044 47 138 92 23.4 811.63550989791 27805.277718981 15516340.210909
225	412697 2246 53123 890044 47 138 92 252.88710119337 626.6 52392.652146679 30866305.953683
vector 682 TestScenario.uninfected[137].veinsmobility posx ETV
vector 683 TestScenario.uninfected[137].veinsmobility posy ETV
vector 684 TestScenario.uninfected[136].veinsmobility speed ETV
446	415136 1496 314304 903971 91 139 49 0.973 8.5132986375171 155.84527847835 719.6556113596
445	416632 1619 314304 903971 91 139 49 -4.5 2.5572234697849 11.373616772329 110.71697079307
439	418251 1584 305574 903971 90 139 50 2.4773956830007 13.886864872065 573.16790663003 7130.0424038349
431	419835 1479 296782 903971 89 139 51 437.32581842147 795.63500324407 30887.92359263 19142550.859306
430	421314 1299 296782 903971 89 139 51 223.4 423.4 15825.870692968 5311500.2671484
vector 685 TestScenario.uninfected[136].veinsmobility acceleration ETV
vector 686 TestScenario.uninfected[136].veinsmobility co2emission ETV
vector 687 TestScenario.uninfected[137].veinsmobility speed ETV
vector 688 TestScenario.uninfected[137].veinsmobility acceleration ETV
vector 689 TestScenario.uninfected[137].veinsmobility co2emission ETV
383	422964 1945 212796 945818 78 142 65 0.973 8.4242161165374 185.6941350267 796.14164074332
382	424909 2162 212796 945818 78 142 65 -3.1769413666534 2.3963222943293 5.9518875999048 113.64241088817
379	427071 2080 204828 945818 77 142 66 3.2969467716548 13.886136954601 778.10776288236 9772.5340683929
371	429151 1967 197175 945818 76 142 67 223.4 812.19304538295 30593.464855339 16854405.219423
370	431118 1615 197175 945818 76 142 67 246.05217281074 426.6 27100.217005462 11121134.567298
vector 690 TestScenario.uninfected[138].veinsmobility posx ETV
vector 691 TestScenario.uninfected[138].veinsmobility posy ETV
vector 692 TestScenario.uninfected[138].veinsmobility speed ETV
vector 693 TestScenario.uninfected[139].veinsmobility posx ETV
vector 694 TestScenario.uninfected[139].veinsmobility posy ETV
vector 695 TestScenario.uninfected[140].veinsmobility posx ETV
vector 696 TestScenario.uninfected[140].veinsmobility posy ETV
vector 697 TestScenario.uninfected[138].veinsmobility acceleration ETV
vector 698 TestScenario.uninfected[138].veinsmobility co2emission ETV
vector 699 TestScenario.uninfected[141].veinsmobility posx ETV
vector 700 TestScenario.uninfected[141].veinsmobility posy ETV
vector 701 TestScenario.uninfected[139].veinsmobility speed ETV
vector 702 TestScenario.uninfected[140].veinsmobility speed ETV
398	433583 1991 234914 1002170 81 146 66 0.973 8.4828978946775 204.38268905535 956.91331792186
397	435574 2182 234914 1002170 81 146 66 -4.2129754629405 2.2709082663641 9.6031066623033 148.91235099075
394	437756 2122 227692 1002170 80 146 67 4.1720333128487 13.889145595448 767.35164613563 9488.0406118338
386	439878 1654 220634 1002170 79 146 68 226.6 423.4 24448.589728692 9271153.2500436
385	441532 1996 220634 1002170 79 146 68 426.6 811.61759035773 37731.336811319 22036653.618213
vector 703 TestScenario.uninfected[142].veinsmobility posx ETV
vector 704 TestScenario.uninfected[142].veinsmobility posy ETV
vector 705 TestScenario.uninfected[139].veinsmobility acceleration ETV
vector 706 TestScenario.uninfected[139].veinsmobility co2emission ETV
vector 707 TestScenario.uninfected[140].veinsmobility acceleration ETV
vector 708 TestScenario.uninfected[140].veinsmobility co2emission ETV
vector 709 TestScenario.uninfected[141].veinsmobility speed ETV
vector 710 TestScenario.uninfected[141].veinsmobility acceleration ETV
vector 711 TestScenario.uninfected[141].veinsmobility co2emission ETV
vector 712 TestScenario.uninfected[142].veinsmobility speed ETV
vector 713 TestScenario.uninfected[143].veinsmobility posx ETV
vector 714 TestScenario.uninfected[143].veinsmobility posy ETV
vector 715 TestScenario.uninfected[142].veinsmobility acceleration ETV
vector 716 TestScenario.uninfected[142].veinsmobility co2emission ETV
vector 717 TestScenario.uninfected[144].veinsmobility posx ETV
vector 718 TestScenario.uninfected[144].veinsmobility posy ETV
vector 719 TestScenario.uninfected[145].veinsmobility posx ETV
vector 720 TestScenario.uninfected[145].veinsmobility posy ETV
vector 721 TestScenario.uninfected[146].veinsmobility posx ETV
vector 722 TestScenario.uninfected[146].veinsmobility posy ETV
vector 723 TestScenario.uninfected[143].veinsmobility speed ETV
vector 724 TestScenario.uninfected[147].veinsmobility posx ETV
vector 725 TestScenario.uninfected[147].veinsmobility posy ETV
vector 726 TestScenario.uninfected[143].veinsmobility acceleration ETV
vector 727 TestScenario.uninfected[143].veinsmobility co2emission ETV
vector 728 TestScenario.uninfected[144].veinsmobility speed ETV
vector 729 TestScenario.uninfected[145].veinsmobility speed ETV
vector 730 TestScenario.uninfected[146].veinsmobility speed ETV
vector 731 TestScenario.uninfected[148].veinsmobility posx ETV
vector 732 TestScenario.uninfected[148].veinsmobility posy ETV
vector 733 TestScenario.uninfected[144].veinsmobility acceleration ETV
vector 734 TestScenario.uninfected[144].veinsmobility co2emission ETV
vector 735 TestScenario.uninfected[145].veinsmobility acceleration ETV
vector 736 TestScenario.uninfected[145].veinsmobility co2emission ETV
vector 737 TestScenario.uninfected[146].veinsmobility acceleration ETV
vector 738 TestScenario.uninfected[146].veinsmobility co2emission ETV
vector 739 TestScenario.uninfected[147].veinsmobility speed ETV
vector 740 TestScenario.uninfected[149].veinsmobility posx ETV
vector 741 TestScenario.uninfected[149].veinsmobility posy ETV
vector 742 TestScenario.uninfected[150].veinsmobility posx ETV
vector 743 TestScenario.uninfected[150].veinsmobility posy ETV
vector 744 TestScenario.uninfected[147].veinsmobility acceleration ETV
vector 745 TestScenario.uninfected[147].veinsmobility co2emission ETV
vector 746 TestScenario.uninfected[148].veinsmobility speed ETV
343	446487 2543 156189 1111969 70 153 84 0.973 8.6295583492397 244.0565354403 1041.00728375
342	449030 2777 156189 1111969 70 153 84 -4.5 2.2870760953263 9.7992002967715 170.77288532587
339	451807 2687 150069 1111969 69 153 85 2.0201144331339 13.88806777528 981.72286563032 12350.208012323
331	454494 2385 143838 1111969 68 153 86 423.4 826.6 55468.449626253 38070294.373777
330	456879 2273 143838 1111969 68 153 86 223.4 426.6 26033.841597611 8496013.5248278
413	459152 2092 257799 1111969 84 153 70 0.973 8.2799776720096 210.85953221983 975.9151461159
412	461244 2327 257799 1111969 84 153 70 -4.3769175740516 2.3791071234248 9.5853738030811 154.65598652296
409	463571 2257 249961 1111969 83 153 71 2.2754901498192 13.888213270754 767.22832957453 9272.0637025724
401	465828 1901 242364 1111969 82 153 72 423.4 623.4 37375.5627038 19923778.343094
400	467729 2006 242364 1111969 82 153 72 26.6 411.61065911681 13560.593731142 3575526.2927299
vector 747 TestScenario.uninfected[151].veinsmobility posx ETV
vector 748 TestScenario.uninfected[151].veinsmobility posy ETV
vector 749 TestScenario.uninfected[152].veinsmobility posx ETV
vector 750 TestScenario.uninfected[152].veinsmobility posy ETV
vector 751 TestScenario.uninfected[148].veinsmobility acceleration ETV
vector 752 TestScenario.uninfected[148].veinsmobility co2emission ETV
vector 753 TestScenario.uninfected[149].veinsmobility speed ETV
vector 754 TestScenario.uninfected[150].veinsmobility speed ETV
vector 755 TestScenario.uninfected[153].veinsmobility posx ETV
vector 756 TestScenario.uninfected[153].veinsmobility posy ETV
vector 757 TestScenario.uninfected[154].veinsmobility posx ETV
vector 758 TestScenario.uninfected[154].veinsmobility posy ETV
vector 759 TestScenario.uninfected[149].veinsmobility acceleration ETV
vector 760 TestScenario.uninfected[149].veinsmobility co2emission ETV
vector 761 TestScenario.uninfected[150].veinsmobility acceleration ETV
vector 762 TestScenario.uninfected[150].veinsmobility co2emission ETV
vector 763 TestScenario.uninfected[151].veinsmobility speed ETV
vector 764 TestScenario.uninfected[152].veinsmobility speed ETV
vector 765 TestScenario.uninfected[155].veinsmobility posx ETV
vector 766 TestScenario.uninfected[155].veinsmobility posy ETV
vector 767 TestScenario.uninfected[151].veinsmobility acceleration ETV
vector 768 TestScenario.uninfected[151].veinsmobility co2emission ETV
vector 769 TestScenario.uninfected[152].veinsmobility acceleration ETV
vector 770 TestScenario.uninfected[152].veinsmobility co2emission ETV
vector 771 TestScenario.uninfected[153].veinsmobility speed ETV
vector 772 TestScenario.uninfected[154].veinsmobility speed ETV
438	471480 2029 305574 1159760 90 156 67 0.973 8.7267449529595 210.4934113198 987.73689870306
437	473509 2215 305574 1159760 90 156 67 -4.5 2.3265595519729 9.8933844241659 167.95868424749
436	475724 2171 296782 1159760 89 156 68 3.6091388779157 13.880620702021 766.37543833199 9446.8103281987
428	477895 1891 289277 1159760 88 156 69 31.304589974303 223.4 11686.237163947 2302563.2404575
427	479786 1862 289277 1159760 88 156 69 49.169798081369 426.6 23421.619832544 8915938.0136366
103	481648 4141 6060 1159760 22 156 135 0.973 8.7095743379261 325.59426271134 1058.2020074616
102	485789 4488 6060 1159760 22 156 135 -4.4947601385741 2.1082976082503 9.5862469341357 100.402185494
99	490277 4091 5292 1159760 21 156 136 4.1836085551388 13.889069033219 1785.9380998624 23981.876626551
91	494368 3309 4531 1159760 20 156 137 23.4 826.6 42477.325313839 27188665.964213
90	497677 3533 4531 1159760 20 156 137 47.404114280255 826.6 88861.696917249 65303645.827652
vector 773 TestScenario.uninfected[156].veinsmobility posx ETV
vector 774 TestScenario.uninfected[156].veinsmobility posy ETV
vector 775 TestScenario.uninfected[153].veinsmobility acceleration ETV
vector 776 TestScenario.uninfected[153].veinsmobility co2emission ETV
vector 777 TestScenario.uninfected[154].veinsmobility acceleration ETV
vector 778 TestScenario.uninfected[154].veinsmobility co2emission ETV
vector 779 TestScenario.uninfected[155].veinsmobility speed ETV
vector 780 TestScenario.uninfected[157].veinsmobility posx ETV
vector 781 TestScenario.uninfected[157].veinsmobility posy ETV
vector 782 TestScenario.uninfected[155].veinsmobility acceleration ETV
vector 783 TestScenario.uninfected[155].veinsmobility co2emission ETV
vector 784 TestScenario.uninfected[156].veinsmobility speed ETV
vector 785 TestScenario.uninfected[158].veinsmobility posx ETV
vector 786 TestScenario.uninfected[158].veinsmobility posy ETV
vector 787 TestScenario.uninfected[156].veinsmobility acceleration ETV
vector 788 TestScenario.uninfected[156].veinsmobility co2emission ETV
vector 789 TestScenario.uninfected[157].veinsmobility speed ETV
vector 790 TestScenario.uninfected[159].veinsmobility posx ETV
vector 791 TestScenario.uninfected[159].veinsmobility posy ETV
vector 792 TestScenario.uninfected[157].veinsmobility acceleration ETV
vector 793 TestScenario.uninfected[157].veinsmobility co2emission ETV
vector 794 TestScenario.uninfected[158].veinsmobility speed ETV
313	502697 2945 122091 1224299 64 160 97 0.973 8.9131272817658 285.84286537474 1282.0494653888
312	505642 3214 122091 1224299 64 160 97 -4.5 2.4565475465101 9.686447104731 199.11099723744
309	508856 3104 116671 1224299 63 160 98 3.5496602622639 13.884806852757 1160.4659010502 14643.926342238
301	511960 2677 111469 1224299 62 160 99 226.6 626.6 36454.392541585 15761632.844116
300	514637 2651 111469 1224299 62 160 99 26.6 591.14006987057 29280.345467325 11780845.535363
vector 795 TestScenario.uninfected[160].veinsmobility posx ETV
vector 796 TestScenario.uninfected[160].veinsmobility posy ETV
vector 797 TestScenario.uninfected[158].veinsmobility acceleration ETV
vector 798 TestScenario.uninfected[158].veinsmobility co2emission ETV
vector 799 TestScenario.uninfected[159].veinsmobility speed ETV
241	517624 3397 62711 1241760 50 161 112 0.973 8.3997839105766 310.27142024168 1274.2859023114
240	521021 3731 62711 1241760 50 161 112 -4.5 2.4115026148269 9.7094144011872 176.33620543096
239	524752 3559 59249 1241760 49 161 113 4.1352456156722 13.889695895177 1375.9586352119 17661.44260503
231	528311 2883 56103 1241760 48 161 114 23.4 426.6 18126.113750569 5892594.297718
230	531194 3142 56103 1241760 48 161 114 23.4 626.6 46492.609795562 24651053.109276
vector 800 TestScenario.uninfected[161].veinsmobility posx ETV
vector 801 TestScenario.uninfected[161].veinsmobility posy ETV
vector 802 TestScenario.uninfected[159].veinsmobility acceleration ETV
vector 803 TestScenario.uninfected[159].veinsmobility co2emission ETV
vector 804 TestScenario.uninfected[160].veinsmobility speed ETV
vector 805 TestScenario.uninfected[162].veinsmobility posx ETV
vector 806 TestScenario.uninfected[162].veinsmobility posy ETV
vector 807 TestScenario.uninfected[160].veinsmobility acceleration ETV
vector 808 TestScenario.uninfected[160].veinsmobility co2emission ETV
vector 809 TestScenario.uninfected[161].veinsmobility speed ETV
vector 810 TestScenario.uninfected[163].veinsmobility posx ETV
vector 811 TestScenario.uninfected[163].veinsmobility posy ETV
vector 812 TestScenario.uninfected[161].veinsmobility acceleration ETV
vector 813 TestScenario.uninfected[161].veinsmobility co2emission ETV
vector 814 TestScenario.uninfected[162].veinsmobility speed ETV
vector 815 TestScenario.uninfected[162].veinsmobility acceleration ETV
vector 816 TestScenario.uninfected[162].veinsmobility co2emission ETV
vector 817 TestScenario.uninfected[163].veinsmobility speed ETV
vector 818 TestScenario.uninfected[163].veinsmobility acceleration ETV
vector 819 TestScenario.uninfected[163].veinsmobility co2emission ETV
vector 820 TestScenario.uninfected[164].veinsmobility posx ETV
vector 821 TestScenario.uninfected[164].veinsmobility posy ETV
588	535823 1516 621464 1345421 119 167 49 0.973 8.7115207793063 153.17873103597 704.67902839308
[...]
vector 3340 TestScenario.uninfected[668].veinsmobility posx ETV
vector 3341 TestScenario.uninfected[668].veinsmobility posy ETV
vector 3342 TestScenario.uninfected[669].veinsmobility posx ETV
vector 3343 TestScenario.uninfected[669].veinsmobility posy ETV
1583	8064188 11121 6306738 31287923 322 674 353 0.973 8.8422496468633 938.67938587697 4020.1751981652
1582	8075309 12702 6306738 31287923 322 674 353 -4.5 2.1814432529851 11.631418631578 824.38613868416
1574	8088011 12401 6260478 31287923 321 674 354 3.2046820366519e-015 13.889911259357 3053.3834174729 35698.18955508
1563	8100412 8640 6213846 31287923 320 674 355 23.4 26.6 8787.1047887659 218358.83840342
1562	8109052 12253 6213846 31287923 320 674 355 230.62457153254 619.35065230128 123331.07452557 46143359.565619
2703	8121305 4356 20619679 31287923 544 674 131 0.973 8.4260976283383 371.95750488676 1586.4442973715
2702	8125661 4754 20619679 31287923 544 674 131 -4.5 2.1401381579344 9.9617148235178 255.58282318542
2697	8130415 4603 20520378 31287923 543 674 132 3.5216157157742 13.889440092063 1554.392961172 19621.017169644
2685	8135018 3988 20425779 31287923 542 674 133 431.58933824918 823.4 95892.367536157 71555843.387067
2684	8139006 3991 20425779 31287923 542 674 133 26.6 826.6 71357.724624202 50835116.569836
vector 3344 TestScenario.uninfected[670].veinsmobility posx ETV
vector 3345 TestScenario.uninfected[670].veinsmobility posy ETV
vector 3346 TestScenario.uninfected[668].veinsmobility speed ETV
vector 3347 TestScenario.uninfected[669].veinsmobility speed ETV
2831	8143259 3279 23205243 31362312 570 675 106 0.973 8.6926365323575 226.22538399845 762.13696261084
2830	8146538 3943 23205243 31362312 570 675 106 -4.5 2.19209503897 9.6538084474364 92.338357598103
2827	8150481 3872 23114869 31362312 569 675 107 4.5600465269075e-014 13.887632974938 787.3401900132 9496.3633190304
2821	8154353 2592 23024892 31362312 568 675 108 23.4 23.4 2527.2 59136.48
2820	8156945 3771 23024892 31362312 568 675 108 47.917278618981 815.58866957413 41321.109490346 19888711.879264
vector 3348 TestScenario.uninfected[671].veinsmobility posx ETV
vector 3349 TestScenario.uninfected[671].veinsmobility posy ETV
vector 3350 TestScenario.uninfected[672].veinsmobility posx ETV
vector 3351 TestScenario.uninfected[672].veinsmobility posy ETV
vector 3352 TestScenario.uninfected[668].veinsmobility acceleration ETV
vector 3353 TestScenario.uninfected[668].veinsmobility co2emission ETV
vector 3354 TestScenario.uninfected[669].veinsmobility acceleration ETV
vector 3355 TestScenario.uninfected[669].veinsmobility co2emission ETV
vector 3356 TestScenario.uninfected[670].veinsmobility speed ETV
vector 3357 TestScenario.uninfected[670].veinsmobility acceleration ETV
vector 3358 TestScenario.uninfected[670].veinsmobility co2emission ETV
vector 3359 TestScenario.uninfected[671].veinsmobility speed ETV
vector 3360 TestScenario.uninfected[672].veinsmobility speed ETV
2816	8161609 3227 22932686 31510510 567 677 111 0.973 8.3904047418574 225.4951585682 809.09914916468
2815	8164836 4216 22932686 31510510 567 677 111 -3.1685054284057 2.1223717640061 11.024157206895 112.96386172239
2814	8169052 4146 22837562 31510510 566 677 112 4.5395533375447e-014 13.887137299839 571.50954538159 6561.9612425279
2809	8173198 3169 22743814 31510510 565 677 113 437.45026393851 623.4 67146.549737496 40248683.958991
2808	8176367 3230 22743814 31510510 565 677 113 426.6 623.4 56348.13587419 28615491.886271
vector 3361 TestScenario.uninfected[673].veinsmobility posx ETV
vector 3362 TestScenario.uninfected[673].veinsmobility posy ETV
vector 3363 TestScenario.uninfected[674].veinsmobility posx ETV
vector 3364 TestScenario.uninfected[674].veinsmobility posy ETV
vector 3365 TestScenario.uninfected[675].veinsmobility posx ETV
vector 3366 TestScenario.uninfected[675].veinsmobility posy ETV
vector 3367 TestScenario.uninfected[671].veinsmobility acceleration ETV
vector 3368 TestScenario.uninfected[671].veinsmobility co2emission ETV
vector 3369 TestScenario.uninfected[672].veinsmobility acceleration ETV
vector 3370 TestScenario.uninfected[672].veinsmobility co2emission ETV
vector 3371 TestScenario.uninfected[676].veinsmobility posx ETV
vector 3372 TestScenario.uninfected[676].veinsmobility posy ETV
vector 3373 TestScenario.uninfected[677].veinsmobility posx ETV
vector 3374 TestScenario.uninfected[677].veinsmobility posy ETV
vector 3375 TestScenario.uninfected[673].veinsmobility speed ETV
vector 3376 TestScenario.uninfected[674].veinsmobility speed ETV
vector 3377 TestScenario.uninfected[675].veinsmobility speed ETV
3188	8180735 1186 29009140 31664488 643 679 37 0.973 8.0860999784123 108.72436793733 467.58774194876
3187	8181921 1331 29009140 31664488 643 679 37 -3.1040050746067 2.0528335993132 3.0870471713205 84.083996013989
3184	8183252 1324 28935335 31664488 642 679 38 3.0088392884425 13.885732283161 380.02327178598 4327.3690250556
3181	8184576 1193 28862366 31664488 641 679 39 37.547691760279 226.6 6685.8519121395 1343007.6088091
3180	8185769 1173 28862366 31664488 641 679 39 623.4 810.11555399747 26160.869701319 17716357.716531
vector 3378 TestScenario.uninfected[678].veinsmobility posx ETV
vector 3379 TestScenario.uninfected[678].veinsmobility posy ETV
vector 3380 TestScenario.uninfected[673].veinsmobility acceleration ETV
vector 3381 TestScenario.uninfected[673].veinsmobility co2emission ETV
vector 3382 TestScenario.uninfected[674].veinsmobility acceleration ETV
vector 3383 TestScenario.uninfected[674].veinsmobility co2emission ETV
vector 3384 TestScenario.uninfected[675].veinsmobility acceleration ETV
vector 3385 TestScenario.uninfected[675].veinsmobility co2emission ETV
vector 3386 TestScenario.uninfected[676].veinsmobility speed ETV
vector 3387 TestScenario.uninfected[677].veinsmobility speed ETV
1318	8187639 12147 4124513 31739895 269 680 412 0.973 9.1492880468303 853.42105765014 3064.6107118796
1317	8199786 15332 4124513 31739895 269 680 412 -4.5 2.1964764647535 1.8391752794762 547.2455677735
1314	8215118 14946 4087340 31739895 268 680 413 4.5451021567132e-014 13.888018471096 2494.2995066043 28936.572594469
1308	8230064 10825 4050457 31739895 267 680 414 38.329760632973 626.6 243966.56228395 149471675.72923
1307	8240889 12847 4050457 31739895 267 680 414 223.4 419.30594937667 132683.91252923 44511736.193932
2057	8253736 7821 11475007 31739895 419 680 262 0.973 8.5044963238816 442.45960504201 1333.7033714617
2056	8261557 8897 11475007 31739895 419 680 262 -4.5 2.2429931864551 10.981794222479 210.56824822788
2054	8270454 8666 11423854 31739895 418 680 263 0 13.883543945958 973.92210064703 8721.6162407631
2047	8279120 7298 11369651 31739895 417 680 264 226.6 412.7 66894.569223885 17631403.709367
2046	8286418 8201 11369651 31739895 417 680 264 26.6 623.4 68776.724655961 25616162.684824
vector 3388 TestScenario.uninfected[679].veinsmobility posx ETV
vector 3389 TestScenario.uninfected[679].veinsmobility posy ETV
vector 3390 TestScenario.uninfected[680].veinsmobility posx ETV
vector 3391 TestScenario.uninfected[680].veinsmobility posy ETV
vector 3392 TestScenario.uninfected[676].veinsmobility acceleration ETV
vector 3393 TestScenario.uninfected[676].veinsmobility co2emission ETV
vector 3394 TestScenario.uninfected[677].veinsmobility acceleration ETV
vector 3395 TestScenario.uninfected[677].veinsmobility co2emission ETV
vector 3396 TestScenario.uninfected[678].veinsmobility speed ETV
3205	8295235 1138 29232779 31814565 646 681 36 0.973 8.1187644927365 107.79498920839 515.68823547481
3204	8296373 1306 29232779 31814565 646 681 36 -2.4952761467501 2.1212441699556 6.7189018488627 70.614431878907
3201	8297679 1281 29157888 31814565 645 681 37 3.3223269070555 13.859334560409 373.60349443569 4253.3281788913
3191	8298960 960 29084343 31814565 644 681 38 823.4 826.6 31342.820125898 25851998.600338
3190	8299920 1324 29084343 31814565 644 681 38 231.03018884668 412.19205135146 12159.463593896 4040288.2435873
vector 3397 TestScenario.uninfected[681].veinsmobility posx ETV
vector 3398 TestScenario.uninfected[681].veinsmobility posy ETV
vector 3399 TestScenario.uninfected[678].veinsmobility acceleration ETV
vector 3400 TestScenario.uninfected[678].veinsmobility co2emission ETV
vector 3401 TestScenario.uninfected[679].veinsmobility speed ETV
vector 3402 TestScenario.uninfected[680].veinsmobility speed ETV
2701	8301651 4548 20619679 31889945 544 682 139 0.973 8.3192867590466 327.95990896917 1163.3345053952
2700	8306199 5141 20619679 31889945 544 682 139 -4.0839044545219 2.0104518790776 9.6752714136124 153.05730707047
2696	8311340 4952 20520378 31889945 543 682 140 4.5507941377171e-014 13.88774129939 1375.3547136573 17340.997029947
2683	8316292 4330 20425779 31889945 542 682 141 26.6 823.4 58148.45836163 35978999.320442
2682	8320622 4010 20425779 31889945 542 682 141 34.381836419666 423.4 51492.432649041 20475622.497965
vector 3403 TestScenario.uninfected[682].veinsmobility posx ETV
vector 3404 TestScenario.uninfected[682].veinsmobility posy ETV
vector 3405 TestScenario.uninfected[679].veinsmobility acceleration ETV
vector 3406 TestScenario.uninfected[679].veinsmobility co2emission ETV
vector 3407 TestScenario.uninfected[680].veinsmobility acceleration ETV
vector 3408 TestScenario.uninfected[680].veinsmobility co2emission ETV
vector 3409 TestScenario.uninfected[681].veinsmobility speed ETV
vector 3410 TestScenario.uninfected[683].veinsmobility posx ETV
vector 3411 TestScenario.uninfected[683].veinsmobility posy ETV
vector 3412 TestScenario.uninfected[681].veinsmobility acceleration ETV
vector 3413 TestScenario.uninfected[681].veinsmobility co2emission ETV
vector 3414 TestScenario.uninfected[682].veinsmobility speed ETV
vector 3415 TestScenario.uninfected[682].veinsmobility acceleration ETV
vector 3416 TestScenario.uninfected[682].veinsmobility co2emission ETV
vector 3417 TestScenario.uninfected[683].veinsmobility speed ETV
1080	8325670 12508 2496018 32121307 219 685 467 0.973 8.3574398057548 784.11129148352 2269.604854986
1079	8338178 17891 2496018 32121307 219 685 467 -4.5 2.219739298264 9.4147850684094 370.43965650585
1074	8356069 17607 2467712 32121307 218 685 468 4.5363139133625e-014 13.88772031263 1581.4880835049 18333.341077905
1066	8373676 13345 2439994 32121307 217 685 469 23.4 826.6 132416.76988816 55767470.365626
1065	8387021 12580 2439994 32121307 217 685 469 23.4 426.6 177898.37382429 72072005.689981
vector 3418 TestScenario.uninfected[684].veinsmobility posx ETV
vector 3419 TestScenario.uninfected[684].veinsmobility posy ETV
vector 3420 TestScenario.uninfected[683].veinsmobility acceleration ETV
vector 3421 TestScenario.uninfected[683].veinsmobility co2emission ETV
975	8399876 12915 1989885 32199732 199 686 488 0.973 8.1073165851484 824.91188164832 2389.2077601697
974	8412791 17953 1989885 32199732 199 686 488 -3.6393483675501 2.1969419362489 10.384143253856 348.57033502521
971	8430744 17557 1966983 32199732 198 686 489 0 13.8891040764 1763.9963685805 19048.944825294
964	8448301 13009 1942121 32199732 197 686 490 223.4 823.4 192945.19614977 96823799.232626
963	8461310 13029 1942121 32199732 197 686 490 223.4 816.19079890806 217588.6541947 100813356.52715
2136	8474339 7332 12312124 32199732 434 686 253 0.973 8.6029935530184 451.38036246467 1407.4237939243
2135	8481671 9463 12312124 32199732 434 686 253 -4.5 2.0856131707551 6.740325781714 266.89321522502
2133	8491134 9256 12250764 32199732 433 686 254 0 13.885092548623 985.51621122186 9776.2190891018
2121	8500390 7091 12192531 32199732 432 686 255 33.958462916765 226.6 53525.244137275 11572215.937814
2120	8507481 7906 12192531 32199732 432 686 255 23.4 804.0140951603 62174.930625035 24615696.482126
vector 3422 TestScenario.uninfected[685].veinsmobility posx ETV
vector 3423 TestScenario.uninfected[685].veinsmobility posy ETV
vector 3424 TestScenario.uninfected[684].veinsmobility speed ETV
1701	8515583 10113 7566645 32277042 348 687 340 0.973 8.8187379841913 758.15155561072 2919.6492246188
1700	8525696 12704 7566645 32277042 348 687 340 -4.5 2.4295518686622 9.7629266888796 499.35083420269
1697	8538400 12367 7516516 32277042 347 687 341 4.536540066203e-014 13.886819485193 2314.6064054695 27703.802657139
1693	8550767 9731 7464841 32277042 346 687 342 426.6 623.4 193474.43033772 111541551.78661
1692	8560498 10039 7464841 32277042 346 687 342 226.6 423.4 109727.17128404 37534611.038975
vector 3425 TestScenario.uninfected[684].veinsmobility acceleration ETV
vector 3426 TestScenario.uninfected[684].veinsmobility co2emission ETV
vector 3427 TestScenario.uninfected[685].veinsmobility speed ETV
3021	8570748 2629 26292153 32356578 607 688 82 0.973 8.5727887300517 227.93459164858 1040.127213989
3020	8573377 2871 26292153 32356578 607 688 82 -3.2852906391928 2.1183009477595 9.777074940104 177.88543249414
3013	8576248 2779 26211914 32356578 606 688 83 0 13.888917660066 756.01357618097 9020.7930258788
3007	8579027 2877 26131488 32356578 605 688 84 630.66704953101 819.33371540145 62107.613113976 46291442.463309
3006	8581904 2139 26131488 32356578 605 688 84 223.4 226.6 18876.033029016 4241922.2316358
2794	8584043 4145 22357723 32356578 561 688 128 0.973 8.5771410289431 342.67063052574 1442.0588967672
2793	8588188 4657 22357723 32356578 561 688 128 -4.5 2.2850261001824 5.5130974301318 238.20927015634
2789	8592845 4503 22259120 32356578 560 688 129 2.9993993670464 13.888894213517 1369.3245767952 16229.262156104
2784	8597348 3521 22159982 32356578 559 688 130 23.4 219.29575894288 6840.5424489641 786215.97776342
2783	8600869 4198 22159982 32356578 559 688 130 43.274516700351 826.6 74143.13577441 50509056.727616
vector 3428 TestScenario.uninfected[686].veinsmobility posx ETV
vector 3429 TestScenario.uninfected[686].veinsmobility posy ETV
vector 3430 TestScenario.uninfected[687].veinsmobility posx ETV
vector 3431 TestScenario.uninfected[687].veinsmobility posy ETV
vector 3432 TestScenario.uninfected[685].veinsmobility acceleration ETV
vector 3433 TestScenario.uninfected[685].veinsmobility co2emission ETV
2418	8605472 5737 16244356 32437651 492 689 198 0.973 8.5208985832934 426.37388905019 1581.479467085
2417	8611209 7443 16244356 32437651 492 689 198 -4.5 2.5638541799295 2.589166317549 305.2747268027
2414	8618652 7312 16168632 32437651 491 689 199 3.1738227378767e-015 13.889734260512 1180.0784449959 13625.350558143
2404	8625964 5396 16093236 32437651 490 689 200 438.72552334696 815.58416780326 124983.2494344 78657402.710426
2403	8631360 6549 16093236 32437651 490 689 200 26.6 826.6 85498.623363099 46620950.088972
3229	8637909 1280 29535525 32437651 650 689 40 0.973 8.1013355905199 114.44234308868 521.78824049982
3228	8639189 1440 29535525 32437651 650 689 40 -3.1814289873971 2.3358951854496 2.5347039389811 103.90910954087
3223	8640629 1430 29460763 32437651 649 689 41 1.7468133806373 13.882414609441 380.89313036382 4345.3975377379
3214	8642059 1277 29384493 32437651 648 689 42 423.4 612.62482701014 19964.921198973 9698037.8488351
3213	8643336 1278 29384493 32437651 648 689 42 237.66544365197 426.6 15656.650613671 6048878.9728532
vector 3434 TestScenario.uninfected[686].veinsmobility speed ETV
vector 3435 TestScenario.uninfected[687].veinsmobility speed ETV
vector 3436 TestScenario.uninfected[688].veinsmobility posx ETV
vector 3437 TestScenario.uninfected[688].veinsmobility posy ETV
vector 3438 TestScenario.uninfected[686].veinsmobility acceleration ETV
vector 3439 TestScenario.uninfected[686].veinsmobility co2emission ETV
vector 3440 TestScenario.uninfected[687].veinsmobility acceleration ETV
vector 3441 TestScenario.uninfected[687].veinsmobility co2emission ETV
vector 3442 TestScenario.uninfected[688].veinsmobility speed ETV
1373	8645232 11340 4547153 32667978 280 692 413 0.973 8.5132664048043 740.3049654377 2405.0469220333
1372	8656572 15745 4547153 32667978 280 692 413 -4.5 2.548025178283 0.44623170980428 428.79394956664
1366	8672317 15505 4508027 32667978 279 692 414 4.538187929584e-014 13.889415305671 1581.964582145 18328.760783724
1358	8687822 10533 4470270 32667978 278 692 415 23.4 226.6 72039.550649213 15594391.340509
1357	8698355 14059 4470270 32667978 278 692 415 23.4 826.6 178631.91928915 95337467.670627
vector 3443 TestScenario.uninfected[688].veinsmobility acceleration ETV
vector 3444 TestScenario.uninfected[688].veinsmobility co2emission ETV
vector 3445 TestScenario.uninfected[689].veinsmobility posx ETV
vector 3446 TestScenario.uninfected[689].veinsmobility posy ETV
vector 3447 TestScenario.uninfected[690].veinsmobility posx ETV
vector 3448 TestScenario.uninfected[690].veinsmobility posy ETV
vector 3449 TestScenario.uninfected[691].veinsmobility posx ETV
vector 3450 TestScenario.uninfected[691].veinsmobility posy ETV
vector 3451 TestScenario.uninfected[689].veinsmobility speed ETV
vector 3452 TestScenario.uninfected[690].veinsmobility speed ETV
2771	8713081 4070 21755900 32898380 555 695 141 0.973 9.0056626699178 259.91473399687 881.02587128927
2770	8717151 5202 21755900 32898380 555 695 141 -2.6469804590078 2.1395306898234 3.0884498296076 148.33195893228
2767	8722353 5105 21654998 32898380 554 695 142 0 13.868915414738 567.83063384893 5431.5350322295
2759	8727458 3595 21551187 32898380 553 695 143 623.4 626.6 89264.761882271 55721941.696753
2758	8731053 4599 21551187 32898380 553 695 143 242.23833939714 618.37406397002 69379.826468778 34570409.772716
vector 3453 TestScenario.uninfected[692].veinsmobility posx ETV
vector 3454 TestScenario.uninfected[692].veinsmobility posy ETV
vector 3455 TestScenario.uninfected[693].veinsmobility posx ETV
vector 3456 TestScenario.uninfected[693].veinsmobility posy ETV
vector 3457 TestScenario.uninfected[689].veinsmobility acceleration ETV
vector 3458 TestScenario.uninfected[689].veinsmobility co2emission ETV
vector 3459 TestScenario.uninfected[690].veinsmobility acceleration ETV
vector 3460 TestScenario.uninfected[690].veinsmobility co2emission ETV
vector 3461 TestScenario.uninfected[691].veinsmobility speed ETV
2198	8736268 7798 13066802 32981199 446 696 251 0.973 8.6028794351139 638.25311634764 2702.690101613
2197	8744066 9237 13066802 32981199 446 696 251 -4.5 2.4482430256461 9.8680644000599 447.76451341647
2192	8753303 8991 13000357 32981199 445 696 252 4.543554408307e-014 13.888275616141 2136.1470578634 25192.203749554
2182	8762294 7794 12935199 32981199 444 696 253 626.6 823.4 177406.12953811 125865189.20669
2181	8770088 7277 12935199 32981199 444 696 253 26.6 223.4 29231.231310891 5233501.2691584
3111	8777365 2330 27725790 32981199 626 696 71 0.973 8.6485737632681 188.97905613871 794.19701152627
3110	8779695 2592 27725790 32981199 626 696 71 -4.4820011009471 2.1961465454567 -0.036311985181041 130.84396003086
3107	8782287 2506 27651201 32981199 625 696 72 1.4014481272409 13.886496891626 774.32329674084 9530.9395903308
3100	8784793 2347 27577059 32981199 624 696 73 26.6 610.13717268592 19793.073676157 8625031.5845336
3099	8787140 2012 27577059 32981199 624 696 73 34.40383103969 223.4 14279.355223424 3033570.0754548
vector 3462 TestScenario.uninfected[694].veinsmobility posx ETV
vector 3463 TestScenario.uninfected[694].veinsmobility posy ETV
vector 3464 TestScenario.uninfected[695].veinsmobility posx ETV
vector 3465 TestScenario.uninfected[695].veinsmobility posy ETV
vector 3466 TestScenario.uninfected[691].veinsmobility acceleration ETV
vector 3467 TestScenario.uninfected[691].veinsmobility co2emission ETV
vector 3468 TestScenario.uninfected[692].veinsmobility speed ETV
vector 3469 TestScenario.uninfected[693].veinsmobility speed ETV
3408	8789689 494 31965568 33062929 683 697 15 0.973 7.933574706377 54.945091792215 288.4126406003
3407	8790183 541 31965568 33062929 683 697 15 -1.8771661557216 2.024721211479 8.4683710307738 29.391484545477
3402	8790724 560 31889945 33062929 682 697 16 3.4149699824827 13.887754319103 177.6547532959 2134.0494162424
3391	8791284 595 31814565 33062929 681 697 17 49.829505615598 212.18933089437 2472.2268740039 412035.98334439
3390	8791879 425 31814565 33062929 681 697 17 226.6 226.6 3852.2 872908.52
