version 2
run Default-0-20200722-14:19:35-268
attr configname Default
attr datetime 20200722-14:19:35
attr experiment Default
attr inifile omnetpp.ini
attr iterationvars ""
attr iterationvarsf ""
attr measurement ""
attr network sim1.src.TestScenario
attr processid 268
attr repetition 0
attr replication #0
attr resultdir results
attr runnumber 0
attr seedset 0
param *.playgroundSizeX 1000m
param *.playgroundSizeY 1000m
param *.playgroundSizeZ 50m
param *.manager.moduleType "\"exploited=org.car2x.veins.nodes.Car *=org.car2x.veins.nodes.Car\""
param *.manager.moduleName "\"exploited=exploited *=uninfected\""
param *.manager.updateInterval 1s
param *.manager.host "\"localhost\""
param *.manager.port 9999
param *.manager.autoShutdown true
param *.manager.launchConfig "xmldoc(\"demo.launchd.xml\")"
param *.connectionManager.sendDirect true
param *.connectionManager.maxInterfDist 300m
param *.connectionManager.drawMaxIntfDist false
param *.**.nic.mac1609_4.useServiceChannel false
param *.**.nic.mac1609_4.txPower 20mW
param *.**.nic.mac1609_4.bitrate 6Mbps
param *.**.nic.phy80211p.sensitivity -89dBm
param *.**.nic.phy80211p.useThermalNoise true
param *.**.nic.phy80211p.thermalNoise -110dBm
param *.**.nic.phy80211p.decider "xmldoc(\"config.xml\")"
param *.**.nic.phy80211p.analogueModels "xmldoc(\"config.xml\")"
param *.**.nic.phy80211p.usePropagationDelay true
param *.**.nic.phy80211p.antenna "xmldoc(\"antenna.xml\", \"/root/Antenna[@id='monopole']\")"
param *.uninfected[*].applType "\"sim1.src.Uninfected\""
param *.uninfected[*].appl.dataPriority 2
param *.uninfected[*].appl.headerLength "80 bit"
param *.uninfected[*].appl.sendBeacons false
param *.uninfected[*].appl.dataOnSch false
param *.uninfected[*].appl.beaconInterval 1s
param *.uninfected[*].veinsmobilityType.debug true
param *.uninfected[*].veinsmobility.x 0
param *.uninfected[*].veinsmobility.y 0
param *.uninfected[*].veinsmobility.z 1.895
param *.uninfected[*0].veinsmobility.accidentCount 1
param *.uninfected[*0].veinsmobility.accidentStart 75s
param *.uninfected[*0].veinsmobility.accidentDuration 50s
param *.exploited[*].applType "\"sim1.src.Exploited\""
param *.exploited[*].appl.dataPriority 2
param *.exploited[*].appl.headerLength "80 bit"
param *.exploited[*].appl.sendBeacons false
param *.exploited[*].appl.dataOnSch false
param *.exploited[*].appl.beaconInterval 1s
param *.exploited[*].veinsmobilityType.debug true
param *.exploited[*].veinsmobility.x 0
param *.exploited[*].veinsmobility.y 0
param *.exploited[*].veinsmobility.z 1.895
param *.exploited[*0].veinsmobility.accidentCount 1
param *.exploited[*0].veinsmobility.accidentStart 75s
param *.exploited[*0].veinsmobility.accidentDuration 50s

scalar TestScenario.uninfected[0].appl generatedWSMs 2
scalar TestScenario.uninfected[0].appl receivedWSMs 0
scalar TestScenario.uninfected[0].appl generatedBSMs 0
scalar TestScenario.uninfected[0].appl receivedBSMs 0
scalar TestScenario.uninfected[0].appl generatedWSAs 0
scalar TestScenario.uninfected[0].appl receivedWSAs 0
scalar TestScenario.uninfected[0].nic.phy80211p busyTime 0
scalar TestScenario.uninfected[0].nic.mac1609_4 ReceivedUnicastPackets 0
scalar TestScenario.uninfected[0].nic.mac1609_4 ReceivedBroadcasts 0
scalar TestScenario.uninfected[0].nic.mac1609_4 SentPackets 2
scalar TestScenario.uninfected[0].nic.mac1609_4 SentAcknowledgements 0
scalar TestScenario.uninfected[0].nic.mac1609_4 SNIRLostPackets 0
scalar TestScenario.uninfected[0].nic.mac1609_4 RXTXLostPackets 0
scalar TestScenario.uninfected[0].nic.mac1609_4 TotalLostPackets 0
scalar TestScenario.uninfected[0].nic.mac1609_4 DroppedPacketsInMac 0
scalar TestScenario.uninfected[0].nic.mac1609_4 TooLittleTime 0
scalar TestScenario.uninfected[0].nic.mac1609_4 TimesIntoBackoff 2
scalar TestScenario.uninfected[0].nic.mac1609_4 SlotsBackoff 2
scalar TestScenario.uninfected[0].nic.mac1609_4 NumInternalContention 0
scalar TestScenario.uninfected[0].nic.mac1609_4 totalBusyTime 0.000466
scalar TestScenario.uninfected[0].veinsmobility startTime 1
scalar TestScenario.uninfected[0].veinsmobility totalTime 15
scalar TestScenario.uninfected[0].veinsmobility stopTime 17
scalar TestScenario.uninfected[0].veinsmobility minSpeed 3.722822103166
scalar TestScenario.uninfected[0].veinsmobility maxSpeed 13.864000451695
scalar TestScenario.uninfected[0].veinsmobility totalDistance 171.58045891983
scalar TestScenario.uninfected[0].veinsmobility totalCO2Emission 50.474118156533
scalar TestScenario.uninfected[2].appl generatedWSMs 2
scalar TestScenario.uninfected[2].appl receivedWSMs 0
scalar TestScenario.uninfected[2].appl generatedBSMs 0
scalar TestScenario.uninfected[2].appl receivedBSMs 0
scalar TestScenario.uninfected[2].appl generatedWSAs 0
scalar TestScenario.uninfected[2].appl receivedWSAs 0
scalar TestScenario.uninfected[2].nic.phy80211p busyTime 0
scalar TestScenario.uninfected[2].nic.mac1609_4 ReceivedUnicastPackets 0
scalar TestScenario.uninfected[2].nic.mac1609_4 ReceivedBroadcasts 0
scalar TestScenario.uninfected[2].nic.mac1609_4 SentPackets 2
scalar TestScenario.uninfected[2].nic.mac1609_4 SentAcknowledgements 0
scalar TestScenario.uninfected[2].nic.mac1609_4 SNIRLostPackets 0
scalar TestScenario.uninfected[2].nic.mac1609_4 RXTXLostPackets 0
scalar TestScenario.uninfected[2].nic.mac1609_4 TotalLostPackets 0
scalar TestScenario.uninfected[2].nic.mac1609_4 DroppedPacketsInMac 0
scalar TestScenario.uninfected[2].nic.mac1609_4 TooLittleTime 0
scalar TestScenario.uninfected[2].nic.mac1609_4 TimesIntoBackoff 2
scalar TestScenario.uninfected[2].nic.mac1609_4 SlotsBackoff 3
scalar TestScenario.uninfected[2].nic.mac1609_4 NumInternalContention 0
scalar TestScenario.uninfected[2].nic.mac1609_4 totalBusyTime 0.000466
scalar TestScenario.uninfected[2].veinsmobility startTime 3
scalar TestScenario.uninfected[2].veinsmobility totalTime 15
scalar TestScenario.uninfected[2].veinsmobility stopTime 19
scalar TestScenario.uninfected[2].veinsmobility minSpeed 3.9817542820289
scalar TestScenario.uninfected[2].veinsmobility maxSpeed 13.884849982031
scalar TestScenario.uninfected[2].veinsmobility totalDistance 172.29676972169
scalar TestScenario.uninfected[2].veinsmobility totalCO2Emission 50.208377241879
scalar TestScenario.uninfected[23].appl generatedWSMs 7
scalar TestScenario.uninfected[23].appl receivedWSMs 15
scalar TestScenario.uninfected[23].appl generatedBSMs 0
scalar TestScenario.uninfected[23].appl receivedBSMs 0
scalar TestScenario.uninfected[23].appl generatedWSAs 0
scalar TestScenario.uninfected[23].appl receivedWSAs 0
scalar TestScenario.uninfected[23].nic.phy80211p busyTime 0.000725
scalar TestScenario.uninfected[23].nic.mac1609_4 ReceivedUnicastPackets 0
scalar TestScenario.uninfected[23].nic.mac1609_4 ReceivedBroadcasts 15
scalar TestScenario.uninfected[23].nic.mac1609_4 SentPackets 7
scalar TestScenario.uninfected[23].nic.mac1609_4 SentAcknowledgements 0
scalar TestScenario.uninfected[23].nic.mac1609_4 SNIRLostPackets 35
scalar TestScenario.uninfected[23].nic.mac1609_4 RXTXLostPackets 20
scalar TestScenario.uninfected[23].nic.mac1609_4 TotalLostPackets 55
scalar TestScenario.uninfected[23].nic.mac1609_4 DroppedPacketsInMac 0
scalar TestScenario.uninfected[23].nic.mac1609_4 TooLittleTime 0
scalar TestScenario.uninfected[23].nic.mac1609_4 TimesIntoBackoff 7
scalar TestScenario.uninfected[23].nic.mac1609_4 SlotsBackoff 7
scalar TestScenario.uninfected[23].nic.mac1609_4 NumInternalContention 0
scalar TestScenario.uninfected[23].nic.mac1609_4 totalBusyTime 0.008127
scalar TestScenario.uninfected[23].veinsmobility startTime 24
scalar TestScenario.uninfected[23].veinsmobility totalTime 15
scalar TestScenario.uninfected[23].veinsmobility stopTime 40
scalar TestScenario.uninfected[23].veinsmobility minSpeed 4.1158313905864
scalar TestScenario.uninfected[23].veinsmobility maxSpeed 13.875373315793
scalar TestScenario.uninfected[23].veinsmobility totalDistance 172.54024381238
scalar TestScenario.uninfected[23].veinsmobility totalCO2Emission 49.762325543066
scalar TestScenario.uninfected[3].appl generatedWSMs 20
scalar TestScenario.uninfected[3].appl receivedWSMs 41
scalar TestScenario.uninfected[3].appl generatedBSMs 0
scalar TestScenario.uninfected[3].appl receivedBSMs 0
scalar TestScenario.uninfected[3].appl generatedWSAs 0
scalar TestScenario.uninfected[3].appl receivedWSAs 0
scalar TestScenario.uninfected[3].nic.phy80211p busyTime 0.0007685
scalar TestScenario.uninfected[3].nic.mac1609_4 ReceivedUnicastPackets 0
scalar TestScenario.uninfected[3].nic.mac1609_4 ReceivedBroadcasts 41
scalar TestScenario.uninfected[3].nic.mac1609_4 SentPackets 20
scalar TestScenario.uninfected[3].nic.mac1609_4 SentAcknowledgements 0
scalar TestScenario.uninfected[3].nic.mac1609_4 SNIRLostPackets 118
scalar TestScenario.uninfected[3].nic.mac1609_4 RXTXLostPackets 36
scalar TestScenario.uninfected[3].nic.mac1609_4 TotalLostPackets 154
scalar TestScenario.uninfected[3].nic.mac1609_4 DroppedPacketsInMac 0
scalar TestScenario.uninfected[3].nic.mac1609_4 TooLittleTime 0
scalar TestScenario.uninfected[3].nic.mac1609_4 TimesIntoBackoff 20
scalar TestScenario.uninfected[3].nic.mac1609_4 SlotsBackoff 35
scalar TestScenario.uninfected[3].nic.mac1609_4 NumInternalContention 0
scalar TestScenario.uninfected[3].nic.mac1609_4 totalBusyTime 0.022988
scalar TestScenario.uninfected[3].veinsmobility startTime 4
scalar TestScenario.uninfected[3].veinsmobility totalTime 47
scalar TestScenario.uninfected[3].veinsmobility stopTime 52
scalar TestScenario.uninfected[3].veinsmobility minSpeed 4.1837425248161
scalar TestScenario.uninfected[3].veinsmobility maxSpeed 13.887542860704
scalar TestScenario.uninfected[3].veinsmobility totalDistance 569.49563607802
scalar TestScenario.uninfected[3].veinsmobility totalCO2Emission 130.71683949643
scalar TestScenario.uninfected[15].appl generatedWSMs 23
scalar TestScenario.uninfected[15].appl receivedWSMs 45
scalar TestScenario.uninfected[15].appl generatedBSMs 0
scalar TestScenario.uninfected[15].appl receivedBSMs 0
scalar TestScenario.uninfected[15].appl generatedWSAs 0
scalar TestScenario.uninfected[15].appl receivedWSAs 0
scalar TestScenario.uninfected[15].nic.phy80211p busyTime 0.0011850810810811
scalar TestScenario.uninfected[15].nic.mac1609_4 ReceivedUnicastPackets 0
scalar TestScenario.uninfected[15].nic.mac1609_4 ReceivedBroadcasts 45
scalar TestScenario.uninfected[15].nic.mac1609_4 SentPackets 23
scalar TestScenario.uninfected[15].nic.mac1609_4 SentAcknowledgements 0
scalar TestScenario.uninfected[15].nic.mac1609_4 SNIRLostPackets 144
scalar TestScenario.uninfected[15].nic.mac1609_4 RXTXLostPackets 62
scalar TestScenario.uninfected[15].nic.mac1609_4 TotalLostPackets 206
scalar TestScenario.uninfected[15].nic.mac1609_4 DroppedPacketsInMac 0
scalar TestScenario.uninfected[15].nic.mac1609_4 TooLittleTime 0
scalar TestScenario.uninfected[15].nic.mac1609_4 TimesIntoBackoff 23
scalar TestScenario.uninfected[15].nic.mac1609_4 SlotsBackoff 33
scalar TestScenario.uninfected[15].nic.mac1609_4 NumInternalContention 0
scalar TestScenario.uninfected[15].nic.mac1609_4 totalBusyTime 0.026935134969
scalar TestScenario.uninfected[15].veinsmobility startTime 16
scalar TestScenario.uninfected[15].veinsmobility totalTime 36
scalar TestScenario.uninfected[15].veinsmobility stopTime 53
scalar TestScenario.uninfected[15].veinsmobility minSpeed 0.5315426897043
scalar TestScenario.uninfected[15].veinsmobility maxSpeed 13.879802511416
scalar TestScenario.uninfected[15].veinsmobility totalDistance 370.2632426399
scalar TestScenario.uninfected[15].veinsmobility totalCO2Emission 109.17991475615
scalar TestScenario.uninfected[20].appl generatedWSMs 19
scalar TestScenario.uninfected[20].appl receivedWSMs 36
scalar TestScenario.uninfected[20].appl generatedBSMs 0
scalar TestScenario.uninfected[20].appl receivedBSMs 0
scalar TestScenario.uninfected[20].appl generatedWSAs 0
scalar TestScenario.uninfected[20].appl receivedWSAs 0
scalar TestScenario.uninfected[20].nic.phy80211p busyTime 0.000841
scalar TestScenario.uninfected[20].nic.mac1609_4 ReceivedUnicastPackets 0
scalar TestScenario.uninfected[20].nic.mac1609_4 ReceivedBroadcasts 36
scalar TestScenario.uninfected[20].nic.mac1609_4 SentPackets 19
scalar TestScenario.uninfected[20].nic.mac1609_4 SentAcknowledgements 0
scalar TestScenario.uninfected[20].nic.mac1609_4 SNIRLostPackets 80
scalar TestScenario.uninfected[20].nic.mac1609_4 RXTXLostPackets 43
scalar TestScenario.uninfected[20].nic.mac1609_4 TotalLostPackets 123
scalar TestScenario.uninfected[20].nic.mac1609_4 DroppedPacketsInMac 0
scalar TestScenario.uninfected[20].nic.mac1609_4 TooLittleTime 0
scalar TestScenario.uninfected[20].nic.mac1609_4 TimesIntoBackoff 19
scalar TestScenario.uninfected[20].nic.mac1609_4 SlotsBackoff 35
scalar TestScenario.uninfected[20].nic.mac1609_4 NumInternalContention 0
scalar TestScenario.uninfected[20].nic.mac1609_4 totalBusyTime 0.017651
scalar TestScenario.uninfected[20].veinsmobility startTime 21
scalar TestScenario.uninfected[20].veinsmobility totalTime 31
scalar TestScenario.uninfected[20].veinsmobility stopTime 53
scalar TestScenario.uninfected[20].veinsmobility minSpeed 4.1823363179106
scalar TestScenario.uninfected[20].veinsmobility maxSpeed 13.886119018339
scalar TestScenario.uninfected[20].veinsmobility totalDistance 364.73852718609
scalar TestScenario.uninfected[20].veinsmobility totalCO2Emission 98.2108391145
scalar TestScenario.uninfected[9].appl generatedWSMs 34
scalar TestScenario.uninfected[9].appl receivedWSMs 74
scalar TestScenario.uninfected[9].appl generatedBSMs 0
scalar TestScenario.uninfected[9].appl receivedBSMs 0
scalar TestScenario.uninfected[9].appl generatedWSAs 0
scalar TestScenario.uninfected[9].appl receivedWSAs 0
scalar TestScenario.uninfected[9].nic.phy80211p busyTime 0.000986
scalar TestScenario.uninfected[9].nic.mac1609_4 ReceivedUnicastPackets 0
scalar TestScenario.uninfected[9].nic.mac1609_4 ReceivedBroadcasts 74
scalar TestScenario.uninfected[9].nic.mac1609_4 SentPackets 34
scalar TestScenario.uninfected[9].nic.mac1609_4 SentAcknowledgements 0
scalar TestScenario.uninfected[9].nic.mac1609_4 SNIRLostPackets 147
scalar TestScenario.uninfected[9].nic.mac1609_4 RXTXLostPackets 110
scalar TestScenario.uninfected[9].nic.mac1609_4 TotalLostPackets 257
scalar TestScenario.uninfected[9].nic.mac1609_4 DroppedPacketsInMac 0
scalar TestScenario.uninfected[9].nic.mac1609_4 TooLittleTime 0
scalar TestScenario.uninfected[9].nic.mac1609_4 TimesIntoBackoff 34
scalar TestScenario.uninfected[9].nic.mac1609_4 SlotsBackoff 50
scalar TestScenario.uninfected[9].nic.mac1609_4 NumInternalContention 0
scalar TestScenario.uninfected[9].nic.mac1609_4 totalBusyTime 0.033906226474
scalar TestScenario.uninfected[9].veinsmobility startTime 10
scalar TestScenario.uninfected[9].veinsmobility totalTime 51
scalar TestScenario.uninfected[9].veinsmobility stopTime 62
scalar TestScenario.uninfected[9].veinsmobility minSpeed 3.4112935226373
scalar TestScenario.uninfected[9].veinsmobility maxSpeed 13.888485842573
scalar TestScenario.uninfected[9].veinsmobility totalDistance 570.23074540363
scalar TestScenario.uninfected[9].veinsmobility totalCO2Emission 156.6777678816
scalar TestScenario.uninfected[13].appl generatedWSMs 27
scalar TestScenario.uninfected[13].appl receivedWSMs 49
scalar TestScenario.uninfected[13].appl generatedBSMs 0
scalar TestScenario.uninfected[13].appl receivedBSMs 0
scalar TestScenario.uninfected[13].appl generatedWSAs 0
scalar TestScenario.uninfected[13].appl receivedWSAs 0
scalar TestScenario.uninfected[13].nic.phy80211p busyTime 0.00044979591836735
scalar TestScenario.uninfected[13].nic.mac1609_4 ReceivedUnicastPackets 0
scalar TestScenario.uninfected[13].nic.mac1609_4 ReceivedBroadcasts 49
scalar TestScenario.uninfected[13].nic.mac1609_4 SentPackets 27
scalar TestScenario.uninfected[13].nic.mac1609_4 SentAcknowledgements 0
scalar TestScenario.uninfected[13].nic.mac1609_4 SNIRLostPackets 46
scalar TestScenario.uninfected[13].nic.mac1609_4 RXTXLostPackets 44
scalar TestScenario.uninfected[13].nic.mac1609_4 TotalLostPackets 90
scalar TestScenario.uninfected[13].nic.mac1609_4 DroppedPacketsInMac 0
scalar TestScenario.uninfected[13].nic.mac1609_4 TooLittleTime 0
scalar TestScenario.uninfected[13].nic.mac1609_4 TimesIntoBackoff 27
scalar TestScenario.uninfected[13].nic.mac1609_4 SlotsBackoff 33
scalar TestScenario.uninfected[13].nic.mac1609_4 NumInternalContention 0
scalar TestScenario.uninfected[13].nic.mac1609_4 totalBusyTime 0.020675082368
scalar TestScenario.uninfected[13].veinsmobility startTime 14
scalar TestScenario.uninfected[13].veinsmobility totalTime 48
scalar TestScenario.uninfected[13].veinsmobility stopTime 63
scalar TestScenario.uninfected[13].veinsmobility minSpeed 3.8004325452788
scalar TestScenario.uninfected[13].veinsmobility maxSpeed 13.882082889744
scalar TestScenario.uninfected[13].veinsmobility totalDistance 572.62480516331
scalar TestScenario.uninfected[13].veinsmobility totalCO2Emission 132.95946114882
scalar TestScenario.uninfected[32].appl generatedWSMs 13
scalar TestScenario.uninfected[32].appl receivedWSMs 29
scalar TestScenario.uninfected[32].appl generatedBSMs 0
scalar TestScenario.uninfected[32].appl receivedBSMs 0
scalar TestScenario.uninfected[32].appl generatedWSAs 0
scalar TestScenario.uninfected[32].appl receivedWSAs 0
scalar TestScenario.uninfected[32].nic.phy80211p busyTime 0.0011213333333333
scalar TestScenario.uninfected[32].nic.mac1609_4 ReceivedUnicastPackets 0
scalar TestScenario.uninfected[32].nic.mac1609_4 ReceivedBroadcasts 29
scalar TestScenario.uninfected[32].nic.mac1609_4 SentPackets 13
scalar TestScenario.uninfected[32].nic.mac1609_4 SentAcknowledgements 0
scalar TestScenario.uninfected[32].nic.mac1609_4 SNIRLostPackets 116
scalar TestScenario.uninfected[32].nic.mac1609_4 RXTXLostPackets 44
scalar TestScenario.uninfected[32].nic.mac1609_4 TotalLostPackets 160
scalar TestScenario.uninfected[32].nic.mac1609_4 DroppedPacketsInMac 0
scalar TestScenario.uninfected[32].nic.mac1609_4 TooLittleTime 0
scalar TestScenario.uninfected[32].nic.mac1609_4 TimesIntoBackoff 13
scalar TestScenario.uninfected[32].nic.mac1609_4 SlotsBackoff 18
scalar TestScenario.uninfected[32].nic.mac1609_4 NumInternalContention 0
scalar TestScenario.uninfected[32].nic.mac1609_4 totalBusyTime 0.01764526426
scalar TestScenario.uninfected[32].veinsmobility startTime 33
scalar TestScenario.uninfected[32].veinsmobility totalTime 29
scalar TestScenario.uninfected[32].veinsmobility stopTime 63
scalar TestScenario.uninfected[32].veinsmobility minSpeed 4.181256988586
scalar TestScenario.uninfected[32].veinsmobility maxSpeed 13.889535780903
scalar TestScenario.uninfected[32].veinsmobility totalDistance 366.31644014747
scalar TestScenario.uninfected[32].veinsmobility totalCO2Emission 78.073914818232
scalar TestScenario.uninfected[28].appl generatedWSMs 19
scalar TestScenario.uninfected[28].appl receivedWSMs 45
scalar TestScenario.uninfected[28].appl generatedBSMs 0
scalar TestScenario.uninfected[28].appl receivedBSMs 0
scalar TestScenario.uninfected[28].appl generatedWSAs 0
scalar TestScenario.uninfected[28].appl receivedWSAs 0
scalar TestScenario.uninfected[28].nic.phy80211p busyTime 0.0019784444444445
scalar TestScenario.uninfected[28].nic.mac1609_4 ReceivedUnicastPackets 0
scalar TestScenario.uninfected[28].nic.mac1609_4 ReceivedBroadcasts 45
scalar TestScenario.uninfected[28].nic.mac1609_4 SentPackets 19
scalar TestScenario.uninfected[28].nic.mac1609_4 SentAcknowledgements 0
scalar TestScenario.uninfected[28].nic.mac1609_4 SNIRLostPackets 262
scalar TestScenario.uninfected[28].nic.mac1609_4 RXTXLostPackets 64
scalar TestScenario.uninfected[28].nic.mac1609_4 TotalLostPackets 326
scalar TestScenario.uninfected[28].nic.mac1609_4 DroppedPacketsInMac 0
scalar TestScenario.uninfected[28].nic.mac1609_4 TooLittleTime 0
scalar TestScenario.uninfected[28].nic.mac1609_4 TimesIntoBackoff 19
scalar TestScenario.uninfected[28].nic.mac1609_4 SlotsBackoff 28
scalar TestScenario.uninfected[28].nic.mac1609_4 NumInternalContention 0
scalar TestScenario.uninfected[28].nic.mac1609_4 totalBusyTime 0.029483223541
scalar TestScenario.uninfected[28].veinsmobility startTime 29
scalar TestScenario.uninfected[28].veinsmobility totalTime 35
scalar TestScenario.uninfected[28].veinsmobility stopTime 65
scalar TestScenario.uninfected[28].veinsmobility minSpeed 1.7537069881504
scalar TestScenario.uninfected[28].veinsmobility maxSpeed 13.887366050095
scalar TestScenario.uninfected[28].veinsmobility totalDistance 378.40891758456
scalar TestScenario.uninfected[28].veinsmobility totalCO2Emission 108.94107437241
scalar TestScenario.uninfected[16].appl generatedWSMs 38
scalar TestScenario.uninfected[16].appl receivedWSMs 62
scalar TestScenario.uninfected[16].appl generatedBSMs 0
scalar TestScenario.uninfected[16].appl receivedBSMs 0
scalar TestScenario.uninfected[16].appl generatedWSAs 0
scalar TestScenario.uninfected[16].appl receivedWSAs 0
scalar TestScenario.uninfected[16].nic.phy80211p busyTime 0.00068633333333333
scalar TestScenario.uninfected[16].nic.mac1609_4 ReceivedUnicastPackets 0
scalar TestScenario.uninfected[16].nic.mac1609_4 ReceivedBroadcasts 62
scalar TestScenario.uninfected[16].nic.mac1609_4 SentPackets 38
scalar TestScenario.uninfected[16].nic.mac1609_4 SentAcknowledgements 0
scalar TestScenario.uninfected[16].nic.mac1609_4 SNIRLostPackets 80
scalar TestScenario.uninfected[16].nic.mac1609_4 RXTXLostPackets 119
scalar TestScenario.uninfected[16].nic.mac1609_4 TotalLostPackets 199
scalar TestScenario.uninfected[16].nic.mac1609_4 DroppedPacketsInMac 0
scalar TestScenario.uninfected[16].nic.mac1609_4 TooLittleTime 0
scalar TestScenario.uninfected[16].nic.mac1609_4 TimesIntoBackoff 38
scalar TestScenario.uninfected[16].nic.mac1609_4 SlotsBackoff 60
scalar TestScenario.uninfected[16].nic.mac1609_4 NumInternalContention 0
scalar TestScenario.uninfected[16].nic.mac1609_4 totalBusyTime 0.029502315455
scalar TestScenario.uninfected[16].veinsmobility startTime 17
scalar TestScenario.uninfected[16].veinsmobility totalTime 47
scalar TestScenario.uninfected[16].veinsmobility stopTime 65
scalar TestScenario.uninfected[16].veinsmobility minSpeed 4.2870338742172
scalar TestScenario.uninfected[16].veinsmobility maxSpeed 13.888224797316
scalar TestScenario.uninfected[16].veinsmobility totalDistance 567.92156467632
scalar TestScenario.uninfected[16].veinsmobility totalCO2Emission 133.28311824532
scalar TestScenario.exploited[38].appl generatedWSMs 30
scalar TestScenario.exploited[38].appl receivedWSMs 55
scalar TestScenario.exploited[38].appl generatedBSMs 0
scalar TestScenario.exploited[38].appl receivedBSMs 0
scalar TestScenario.exploited[38].appl generatedWSAs 0
scalar TestScenario.exploited[38].appl receivedWSAs 0
scalar TestScenario.exploited[38].nic.phy80211p busyTime 0.0012282352941176
scalar TestScenario.exploited[38].nic.mac1609_4 ReceivedUnicastPackets 0
scalar TestScenario.exploited[38].nic.mac1609_4 ReceivedBroadcasts 55
scalar TestScenario.exploited[38].nic.mac1609_4 SentPackets 30
scalar TestScenario.exploited[38].nic.mac1609_4 SentAcknowledgements 0
scalar TestScenario.exploited[38].nic.mac1609_4 SNIRLostPackets 125
scalar TestScenario.exploited[38].nic.mac1609_4 RXTXLostPackets 141
scalar TestScenario.exploited[38].nic.mac1609_4 TotalLostPackets 266
scalar TestScenario.exploited[38].nic.mac1609_4 DroppedPacketsInMac 0
scalar TestScenario.exploited[38].nic.mac1609_4 TooLittleTime 0
scalar TestScenario.exploited[38].nic.mac1609_4 TimesIntoBackoff 30
scalar TestScenario.exploited[38].nic.mac1609_4 SlotsBackoff 28
scalar TestScenario.exploited[38].nic.mac1609_4 NumInternalContention 0
scalar TestScenario.exploited[38].nic.mac1609_4 totalBusyTime 0.026246
scalar TestScenario.exploited[38].veinsmobility startTime 39
scalar TestScenario.exploited[38].veinsmobility totalTime 33
scalar TestScenario.exploited[38].veinsmobility stopTime 73
scalar TestScenario.exploited[38].veinsmobility minSpeed 4.1589409556698
scalar TestScenario.exploited[38].veinsmobility maxSpeed 13.880922705762
scalar TestScenario.exploited[38].veinsmobility totalDistance 371.51940586495
scalar TestScenario.exploited[38].veinsmobility totalCO2Emission 102.54587882146
scalar TestScenario.uninfected[5].appl generatedWSMs 31
scalar TestScenario.uninfected[5].appl receivedWSMs 72
scalar TestScenario.uninfected[5].appl generatedBSMs 0
scalar TestScenario.uninfected[5].appl receivedBSMs 0
scalar TestScenario.uninfected[5].appl generatedWSAs 0
scalar TestScenario.uninfected[5].appl receivedWSAs 0
scalar TestScenario.uninfected[5].nic.phy80211p busyTime 0.001118447761194
scalar TestScenario.uninfected[5].nic.mac1609_4 ReceivedUnicastPackets 0
scalar TestScenario.uninfected[5].nic.mac1609_4 ReceivedBroadcasts 72
scalar TestScenario.uninfected[5].nic.mac1609_4 SentPackets 31
scalar TestScenario.uninfected[5].nic.mac1609_4 SentAcknowledgements 0
scalar TestScenario.uninfected[5].nic.mac1609_4 SNIRLostPackets 251
scalar TestScenario.uninfected[5].nic.mac1609_4 RXTXLostPackets 88
scalar TestScenario.uninfected[5].nic.mac1609_4 TotalLostPackets 339
scalar TestScenario.uninfected[5].nic.mac1609_4 DroppedPacketsInMac 0
scalar TestScenario.uninfected[5].nic.mac1609_4 TooLittleTime 0
scalar TestScenario.uninfected[5].nic.mac1609_4 TimesIntoBackoff 31
scalar TestScenario.uninfected[5].nic.mac1609_4 SlotsBackoff 47
scalar TestScenario.uninfected[5].nic.mac1609_4 NumInternalContention 0
scalar TestScenario.uninfected[5].nic.mac1609_4 totalBusyTime 0.037151
scalar TestScenario.uninfected[5].veinsmobility startTime 6
scalar TestScenario.uninfected[5].veinsmobility totalTime 66
scalar TestScenario.uninfected[5].veinsmobility stopTime 73
scalar TestScenario.uninfected[5].veinsmobility minSpeed 3.6002955662995
scalar TestScenario.uninfected[5].veinsmobility maxSpeed 13.882956327561
scalar TestScenario.uninfected[5].veinsmobility totalDistance 758.27902928976
scalar TestScenario.uninfected[5].veinsmobility totalCO2Emission 185.75539406447
scalar TestScenario.uninfected[24].appl generatedWSMs 33
scalar TestScenario.uninfected[24].appl receivedWSMs 48
scalar TestScenario.uninfected[24].appl generatedBSMs 0
scalar TestScenario.uninfected[24].appl receivedBSMs 0
scalar TestScenario.uninfected[24].appl generatedWSAs 0
scalar TestScenario.uninfected[24].appl receivedWSAs 0
scalar TestScenario.uninfected[24].nic.phy80211p busyTime 0.00056342857142857
scalar TestScenario.uninfected[24].nic.mac1609_4 ReceivedUnicastPackets 0
scalar TestScenario.uninfected[24].nic.mac1609_4 ReceivedBroadcasts 48
scalar TestScenario.uninfected[24].nic.mac1609_4 SentPackets 33
scalar TestScenario.uninfected[24].nic.mac1609_4 SentAcknowledgements 0
scalar TestScenario.uninfected[24].nic.mac1609_4 SNIRLostPackets 71
scalar TestScenario.uninfected[24].nic.mac1609_4 RXTXLostPackets 69
scalar TestScenario.uninfected[24].nic.mac1609_4 TotalLostPackets 140
scalar TestScenario.uninfected[24].nic.mac1609_4 DroppedPacketsInMac 0
scalar TestScenario.uninfected[24].nic.mac1609_4 TooLittleTime 0
scalar TestScenario.uninfected[24].nic.mac1609_4 TimesIntoBackoff 33
scalar TestScenario.uninfected[24].nic.mac1609_4 SlotsBackoff 38
scalar TestScenario.uninfected[24].nic.mac1609_4 NumInternalContention 0
scalar TestScenario.uninfected[24].nic.mac1609_4 totalBusyTime 0.025321106812
scalar TestScenario.uninfected[24].veinsmobility startTime 25
scalar TestScenario.uninfected[24].veinsmobility totalTime 48
scalar TestScenario.uninfected[24].veinsmobility stopTime 74
scalar TestScenario.uninfected[24].veinsmobility minSpeed 3.644202668598
scalar TestScenario.uninfected[24].veinsmobility maxSpeed 13.887899353777
scalar TestScenario.uninfected[24].veinsmobility totalDistance 562.38316015155
scalar TestScenario.uninfected[24].veinsmobility totalCO2Emission 133.09724979558
scalar TestScenario.uninfected[12].appl generatedWSMs 38
scalar TestScenario.uninfected[12].appl receivedWSMs 78
scalar TestScenario.uninfected[12].appl generatedBSMs 0
scalar TestScenario.uninfected[12].appl receivedBSMs 0
scalar TestScenario.uninfected[12].appl generatedWSAs 0
scalar TestScenario.uninfected[12].appl receivedWSAs 0
scalar TestScenario.uninfected[12].nic.phy80211p busyTime 0.0012741587301587
scalar TestScenario.uninfected[12].nic.mac1609_4 ReceivedUnicastPackets 0
scalar TestScenario.uninfected[12].nic.mac1609_4 ReceivedBroadcasts 78
scalar TestScenario.uninfected[12].nic.mac1609_4 SentPackets 38
scalar TestScenario.uninfected[12].nic.mac1609_4 SentAcknowledgements 0
scalar TestScenario.uninfected[12].nic.mac1609_4 SNIRLostPackets 268
scalar TestScenario.uninfected[12].nic.mac1609_4 RXTXLostPackets 105
scalar TestScenario.uninfected[12].nic.mac1609_4 TotalLostPackets 373
scalar TestScenario.uninfected[12].nic.mac1609_4 DroppedPacketsInMac 0
scalar TestScenario.uninfected[12].nic.mac1609_4 TooLittleTime 0
scalar TestScenario.uninfected[12].nic.mac1609_4 TimesIntoBackoff 38
scalar TestScenario.uninfected[12].nic.mac1609_4 SlotsBackoff 48
scalar TestScenario.uninfected[12].nic.mac1609_4 NumInternalContention 0
scalar TestScenario.uninfected[12].nic.mac1609_4 totalBusyTime 0.042494577434
scalar TestScenario.uninfected[12].veinsmobility startTime 13
scalar TestScenario.uninfected[12].veinsmobility totalTime 62
scalar TestScenario.uninfected[12].veinsmobility stopTime 76
scalar TestScenario.uninfected[12].veinsmobility minSpeed 3.4391091585513
scalar TestScenario.uninfected[12].veinsmobility maxSpeed 13.889598088698
scalar TestScenario.uninfected[12].veinsmobility totalDistance 776.399195224
scalar TestScenario.uninfected[12].veinsmobility totalCO2Emission 163.54817297423
scalar TestScenario.uninfected[11].appl generatedWSMs 37
scalar TestScenario.uninfected[11].appl receivedWSMs 73
scalar TestScenario.uninfected[11].appl generatedBSMs 0
scalar TestScenario.uninfected[11].appl receivedBSMs 0
scalar TestScenario.uninfected[11].appl generatedWSAs 0
scalar TestScenario.uninfected[11].appl receivedWSAs 0
scalar TestScenario.uninfected[11].nic.phy80211p busyTime 0.00090658461538462
scalar TestScenario.uninfected[11].nic.mac1609_4 ReceivedUnicastPackets 0
scalar TestScenario.uninfected[11].nic.mac1609_4 ReceivedBroadcasts 73
scalar TestScenario.uninfected[11].nic.mac1609_4 SentPackets 37
scalar TestScenario.uninfected[11].nic.mac1609_4 SentAcknowledgements 0
scalar TestScenario.uninfected[11].nic.mac1609_4 SNIRLostPackets 181
scalar TestScenario.uninfected[11].nic.mac1609_4 RXTXLostPackets 129
scalar TestScenario.uninfected[11].nic.mac1609_4 TotalLostPackets 310
scalar TestScenario.uninfected[11].nic.mac1609_4 DroppedPacketsInMac 0
scalar TestScenario.uninfected[11].nic.mac1609_4 TooLittleTime 0
scalar TestScenario.uninfected[11].nic.mac1609_4 TimesIntoBackoff 37
scalar TestScenario.uninfected[11].nic.mac1609_4 SlotsBackoff 63
scalar TestScenario.uninfected[11].nic.mac1609_4 NumInternalContention 0
scalar TestScenario.uninfected[11].nic.mac1609_4 totalBusyTime 0.038781346036
scalar TestScenario.uninfected[11].veinsmobility startTime 12
scalar TestScenario.uninfected[11].veinsmobility totalTime 64
scalar TestScenario.uninfected[11].veinsmobility stopTime 77
scalar TestScenario.uninfected[11].veinsmobility minSpeed 3.65
scalar TestScenario.uninfected[11].veinsmobility maxSpeed 13.882164987109
scalar TestScenario.uninfected[11].veinsmobility totalDistance 750.4007740736
scalar TestScenario.uninfected[11].veinsmobility totalCO2Emission 180.2300102317
scalar TestScenario.uninfected[8].appl generatedWSMs 47
scalar TestScenario.uninfected[8].appl receivedWSMs 80
scalar TestScenario.uninfected[8].appl generatedBSMs 0
scalar TestScenario.uninfected[8].appl receivedBSMs 0
scalar TestScenario.uninfected[8].appl generatedWSAs 0
scalar TestScenario.uninfected[8].appl receivedWSAs 0
scalar TestScenario.uninfected[8].nic.phy80211p busyTime 0.00091455072463769
scalar TestScenario.uninfected[8].nic.mac1609_4 ReceivedUnicastPackets 0
scalar TestScenario.uninfected[8].nic.mac1609_4 ReceivedBroadcasts 80
scalar TestScenario.uninfected[8].nic.mac1609_4 SentPackets 47
scalar TestScenario.uninfected[8].nic.mac1609_4 SentAcknowledgements 0
scalar TestScenario.uninfected[8].nic.mac1609_4 SNIRLostPackets 192
scalar TestScenario.uninfected[8].nic.mac1609_4 RXTXLostPackets 141
scalar TestScenario.uninfected[8].nic.mac1609_4 TotalLostPackets 333
scalar TestScenario.uninfected[8].nic.mac1609_4 DroppedPacketsInMac 0
scalar TestScenario.uninfected[8].nic.mac1609_4 TooLittleTime 0
scalar TestScenario.uninfected[8].nic.mac1609_4 TimesIntoBackoff 47
scalar TestScenario.uninfected[8].nic.mac1609_4 SlotsBackoff 61
scalar TestScenario.uninfected[8].nic.mac1609_4 NumInternalContention 0
scalar TestScenario.uninfected[8].nic.mac1609_4 totalBusyTime 0.041343187113
scalar TestScenario.uninfected[8].veinsmobility startTime 9
scalar TestScenario.uninfected[8].veinsmobility totalTime 68
scalar TestScenario.uninfected[8].veinsmobility stopTime 78
scalar TestScenario.uninfected[8].veinsmobility minSpeed 3.9024381770133
scalar TestScenario.uninfected[8].veinsmobility maxSpeed 13.889635096786
scalar TestScenario.uninfected[8].veinsmobility totalDistance 768.25902973159
scalar TestScenario.uninfected[8].veinsmobility totalCO2Emission 187.04746614287
scalar TestScenario.uninfected[1].appl generatedWSMs 54
scalar TestScenario.uninfected[1].appl receivedWSMs 69
scalar TestScenario.uninfected[1].appl generatedBSMs 0
scalar TestScenario.uninfected[1].appl receivedBSMs 0
scalar TestScenario.uninfected[1].appl generatedWSAs 0
scalar TestScenario.uninfected[1].appl receivedWSAs 0
scalar TestScenario.uninfected[1].nic.phy80211p busyTime 0.00044893367564463
scalar TestScenario.uninfected[1].nic.mac1609_4 ReceivedUnicastPackets 0
scalar TestScenario.uninfected[1].nic.mac1609_4 ReceivedBroadcasts 69
scalar TestScenario.uninfected[1].nic.mac1609_4 SentPackets 54
scalar TestScenario.uninfected[1].nic.mac1609_4 SentAcknowledgements 0
scalar TestScenario.uninfected[1].nic.mac1609_4 SNIRLostPackets 80
scalar TestScenario.uninfected[1].nic.mac1609_4 RXTXLostPackets 143
scalar TestScenario.uninfected[1].nic.mac1609_4 TotalLostPackets 223
scalar TestScenario.uninfected[1].nic.mac1609_4 DroppedPacketsInMac 0
scalar TestScenario.uninfected[1].nic.mac1609_4 TooLittleTime 0
scalar TestScenario.uninfected[1].nic.mac1609_4 TimesIntoBackoff 54
scalar TestScenario.uninfected[1].nic.mac1609_4 SlotsBackoff 81
scalar TestScenario.uninfected[1].nic.mac1609_4 NumInternalContention 0
scalar TestScenario.uninfected[1].nic.mac1609_4 totalBusyTime 0.034158363357
scalar TestScenario.uninfected[1].veinsmobility startTime 2
scalar TestScenario.uninfected[1].veinsmobility totalTime 77
scalar TestScenario.uninfected[1].veinsmobility stopTime 79.000238287678
scalar TestScenario.uninfected[1].veinsmobility minSpeed 3.805675440561
scalar TestScenario.uninfected[1].veinsmobility maxSpeed 13.889190463435
scalar TestScenario.uninfected[1].veinsmobility totalDistance 969.84882071111
scalar TestScenario.uninfected[1].veinsmobility totalCO2Emission 198.21301208058
scalar TestScenario.uninfected[10].appl generatedWSMs 43
scalar TestScenario.uninfected[10].appl receivedWSMs 76
scalar TestScenario.uninfected[10].appl generatedBSMs 0
scalar TestScenario.uninfected[10].appl receivedBSMs 0
scalar TestScenario.uninfected[10].appl generatedWSAs 0
scalar TestScenario.uninfected[10].appl receivedWSAs 0
scalar TestScenario.uninfected[10].nic.phy80211p busyTime 0.0011327019131043
scalar TestScenario.uninfected[10].nic.mac1609_4 ReceivedUnicastPackets 0
scalar TestScenario.uninfected[10].nic.mac1609_4 ReceivedBroadcasts 76
scalar TestScenario.uninfected[10].nic.mac1609_4 SentPackets 43
scalar TestScenario.uninfected[10].nic.mac1609_4 SentAcknowledgements 0
scalar TestScenario.uninfected[10].nic.mac1609_4 SNIRLostPackets 256
scalar TestScenario.uninfected[10].nic.mac1609_4 RXTXLostPackets 156
scalar TestScenario.uninfected[10].nic.mac1609_4 TotalLostPackets 412
scalar TestScenario.uninfected[10].nic.mac1609_4 DroppedPacketsInMac 0
scalar TestScenario.uninfected[10].nic.mac1609_4 TooLittleTime 0
scalar TestScenario.uninfected[10].nic.mac1609_4 TimesIntoBackoff 42
scalar TestScenario.uninfected[10].nic.mac1609_4 SlotsBackoff 58
scalar TestScenario.uninfected[10].nic.mac1609_4 NumInternalContention 0
scalar TestScenario.uninfected[10].nic.mac1609_4 totalBusyTime 0.043658692704
scalar TestScenario.uninfected[10].veinsmobility startTime 11
scalar TestScenario.uninfected[10].veinsmobility totalTime 68
scalar TestScenario.uninfected[10].veinsmobility stopTime 79.000238287678
scalar TestScenario.uninfected[10].veinsmobility minSpeed 3.6684437991349
scalar TestScenario.uninfected[10].veinsmobility maxSpeed 13.884394628941
scalar TestScenario.uninfected[10].veinsmobility totalDistance 753.01983374078
scalar TestScenario.uninfected[10].veinsmobility totalCO2Emission 208.0738327367
scalar TestScenario.uninfected[14].appl generatedWSMs 51
scalar TestScenario.uninfected[14].appl receivedWSMs 78
scalar TestScenario.uninfected[14].appl generatedBSMs 0
scalar TestScenario.uninfected[14].appl receivedBSMs 0
scalar TestScenario.uninfected[14].appl generatedWSAs 0
scalar TestScenario.uninfected[14].appl receivedWSAs 0
scalar TestScenario.uninfected[14].nic.phy80211p busyTime 0.00086274678778237
scalar TestScenario.uninfected[14].nic.mac1609_4 ReceivedUnicastPackets 0
scalar TestScenario.uninfected[14].nic.mac1609_4 ReceivedBroadcasts 78
scalar TestScenario.uninfected[14].nic.mac1609_4 SentPackets 51
scalar TestScenario.uninfected[14].nic.mac1609_4 SentAcknowledgements 0
scalar TestScenario.uninfected[14].nic.mac1609_4 SNIRLostPackets 155
scalar TestScenario.uninfected[14].nic.mac1609_4 RXTXLostPackets 176
scalar TestScenario.uninfected[14].nic.mac1609_4 TotalLostPackets 331
scalar TestScenario.uninfected[14].nic.mac1609_4 DroppedPacketsInMac 0
scalar TestScenario.uninfected[14].nic.mac1609_4 TooLittleTime 0
scalar TestScenario.uninfected[14].nic.mac1609_4 TimesIntoBackoff 51
scalar TestScenario.uninfected[14].nic.mac1609_4 SlotsBackoff 83
scalar TestScenario.uninfected[14].nic.mac1609_4 NumInternalContention 0
scalar TestScenario.uninfected[14].nic.mac1609_4 totalBusyTime 0.040651642004
scalar TestScenario.uninfected[14].veinsmobility startTime 15
scalar TestScenario.uninfected[14].veinsmobility totalTime 64
scalar TestScenario.uninfected[14].veinsmobility stopTime 79.000238287678
scalar TestScenario.uninfected[14].veinsmobility minSpeed 0.26000000000083
scalar TestScenario.uninfected[14].veinsmobility maxSpeed 13.882380130515
scalar TestScenario.uninfected[14].veinsmobility totalDistance 628.05581495503
scalar TestScenario.uninfected[14].veinsmobility totalCO2Emission 197.56750866844
scalar TestScenario.exploited[17].appl generatedWSMs 35
scalar TestScenario.exploited[17].appl receivedWSMs 73
scalar TestScenario.exploited[17].appl generatedBSMs 0
scalar TestScenario.exploited[17].appl receivedBSMs 0
scalar TestScenario.exploited[17].appl generatedWSAs 0
scalar TestScenario.exploited[17].appl receivedWSAs 0
scalar TestScenario.exploited[17].nic.phy80211p busyTime 0.0010497008175284
scalar TestScenario.exploited[17].nic.mac1609_4 ReceivedUnicastPackets 0
scalar TestScenario.exploited[17].nic.mac1609_4 ReceivedBroadcasts 73
scalar TestScenario.exploited[17].nic.mac1609_4 SentPackets 35
scalar TestScenario.exploited[17].nic.mac1609_4 SentAcknowledgements 0
scalar TestScenario.exploited[17].nic.mac1609_4 SNIRLostPackets 201
scalar TestScenario.exploited[17].nic.mac1609_4 RXTXLostPackets 79
scalar TestScenario.exploited[17].nic.mac1609_4 TotalLostPackets 280
scalar TestScenario.exploited[17].nic.mac1609_4 DroppedPacketsInMac 0
scalar TestScenario.exploited[17].nic.mac1609_4 TooLittleTime 0
scalar TestScenario.exploited[17].nic.mac1609_4 TimesIntoBackoff 35
scalar TestScenario.exploited[17].nic.mac1609_4 SlotsBackoff 62
scalar TestScenario.exploited[17].nic.mac1609_4 NumInternalContention 0
scalar TestScenario.exploited[17].nic.mac1609_4 totalBusyTime 0.038547091578
scalar TestScenario.exploited[17].veinsmobility startTime 18
scalar TestScenario.exploited[17].veinsmobility totalTime 61
scalar TestScenario.exploited[17].veinsmobility stopTime 79.000238287678
scalar TestScenario.exploited[17].veinsmobility minSpeed 3.9475584061126
scalar TestScenario.exploited[17].veinsmobility maxSpeed 13.888144439573
scalar TestScenario.exploited[17].veinsmobility totalDistance 724.60682805441
scalar TestScenario.exploited[17].veinsmobility totalCO2Emission 175.04405954625
scalar TestScenario.uninfected[18].appl generatedWSMs 45
scalar TestScenario.uninfected[18].appl receivedWSMs 73
scalar TestScenario.uninfected[18].appl generatedBSMs 0
scalar TestScenario.uninfected[18].appl receivedBSMs 0
scalar TestScenario.uninfected[18].appl generatedWSAs 0
scalar TestScenario.uninfected[18].appl receivedWSAs 0
scalar TestScenario.uninfected[18].nic.phy80211p busyTime 0.0011870619522961
scalar TestScenario.uninfected[18].nic.mac1609_4 ReceivedUnicastPackets 0
scalar TestScenario.uninfected[18].nic.mac1609_4 ReceivedBroadcasts 73
scalar TestScenario.uninfected[18].nic.mac1609_4 SentPackets 45
scalar TestScenario.uninfected[18].nic.mac1609_4 SentAcknowledgements 0
scalar TestScenario.uninfected[18].nic.mac1609_4 SNIRLostPackets 231
scalar TestScenario.uninfected[18].nic.mac1609_4 RXTXLostPackets 170
scalar TestScenario.uninfected[18].nic.mac1609_4 TotalLostPackets 401
scalar TestScenario.uninfected[18].nic.mac1609_4 DroppedPacketsInMac 0
scalar TestScenario.uninfected[18].nic.mac1609_4 TooLittleTime 0
scalar TestScenario.uninfected[18].nic.mac1609_4 TimesIntoBackoff 45
scalar TestScenario.uninfected[18].nic.mac1609_4 SlotsBackoff 60
scalar TestScenario.uninfected[18].nic.mac1609_4 NumInternalContention 0
scalar TestScenario.uninfected[18].nic.mac1609_4 totalBusyTime 0.040646090733
scalar TestScenario.uninfected[18].veinsmobility startTime 19
scalar TestScenario.uninfected[18].veinsmobility totalTime 60
scalar TestScenario.uninfected[18].veinsmobility stopTime 79.000238287678
scalar TestScenario.uninfected[18].veinsmobility minSpeed 3.5317258057068
scalar TestScenario.uninfected[18].veinsmobility maxSpeed 13.882833811692
scalar TestScenario.uninfected[18].veinsmobility totalDistance 697.14083691228
scalar TestScenario.uninfected[18].veinsmobility totalCO2Emission 173.05209438003
scalar TestScenario.uninfected[19].appl generatedWSMs 32
scalar TestScenario.uninfected[19].appl receivedWSMs 65
scalar TestScenario.uninfected[19].appl generatedBSMs 0
scalar TestScenario.uninfected[19].appl receivedBSMs 0
scalar TestScenario.uninfected[19].appl generatedWSAs 0
scalar TestScenario.uninfected[19].appl receivedWSAs 0
scalar TestScenario.uninfected[19].nic.phy80211p busyTime 0.0010695550023428
scalar TestScenario.uninfected[19].nic.mac1609_4 ReceivedUnicastPackets 0
scalar TestScenario.uninfected[19].nic.mac1609_4 ReceivedBroadcasts 65
scalar TestScenario.uninfected[19].nic.mac1609_4 SentPackets 32
scalar TestScenario.uninfected[19].nic.mac1609_4 SentAcknowledgements 0
scalar TestScenario.uninfected[19].nic.mac1609_4 SNIRLostPackets 206
scalar TestScenario.uninfected[19].nic.mac1609_4 RXTXLostPackets 82
scalar TestScenario.uninfected[19].nic.mac1609_4 TotalLostPackets 288
scalar TestScenario.uninfected[19].nic.mac1609_4 DroppedPacketsInMac 0
scalar TestScenario.uninfected[19].nic.mac1609_4 TooLittleTime 0
scalar TestScenario.uninfected[19].nic.mac1609_4 TimesIntoBackoff 32
scalar TestScenario.uninfected[19].nic.mac1609_4 SlotsBackoff 45
scalar TestScenario.uninfected[19].nic.mac1609_4 NumInternalContention 0
scalar TestScenario.uninfected[19].nic.mac1609_4 totalBusyTime 0.033904051153
scalar TestScenario.uninfected[19].veinsmobility startTime 20
scalar TestScenario.uninfected[19].veinsmobility totalTime 59
scalar TestScenario.uninfected[19].veinsmobility stopTime 79.000238287678
scalar TestScenario.uninfected[19].veinsmobility minSpeed 4.1509726031868
scalar TestScenario.uninfected[19].veinsmobility maxSpeed 13.889706597512
scalar TestScenario.uninfected[19].veinsmobility totalDistance 748.48106719335
scalar TestScenario.uninfected[19].veinsmobility totalCO2Emission 154.75132019365
scalar TestScenario.uninfected[21].appl generatedWSMs 36
scalar TestScenario.uninfected[21].appl receivedWSMs 66
scalar TestScenario.uninfected[21].appl generatedBSMs 0
scalar TestScenario.uninfected[21].appl receivedBSMs 0
scalar TestScenario.uninfected[21].appl generatedWSAs 0
scalar TestScenario.uninfected[21].appl receivedWSAs 0
scalar TestScenario.uninfected[21].nic.phy80211p busyTime 0.0012658192696643
scalar TestScenario.uninfected[21].nic.mac1609_4 ReceivedUnicastPackets 0
scalar TestScenario.uninfected[21].nic.mac1609_4 ReceivedBroadcasts 66
scalar TestScenario.uninfected[21].nic.mac1609_4 SentPackets 36
scalar TestScenario.uninfected[21].nic.mac1609_4 SentAcknowledgements 0
scalar TestScenario.uninfected[21].nic.mac1609_4 SNIRLostPackets 244
scalar TestScenario.uninfected[21].nic.mac1609_4 RXTXLostPackets 132
scalar TestScenario.uninfected[21].nic.mac1609_4 TotalLostPackets 376
scalar TestScenario.uninfected[21].nic.mac1609_4 DroppedPacketsInMac 0
scalar TestScenario.uninfected[21].nic.mac1609_4 TooLittleTime 0
scalar TestScenario.uninfected[21].nic.mac1609_4 TimesIntoBackoff 36
scalar TestScenario.uninfected[21].nic.mac1609_4 SlotsBackoff 41
scalar TestScenario.uninfected[21].nic.mac1609_4 NumInternalContention 0
scalar TestScenario.uninfected[21].nic.mac1609_4 totalBusyTime 0.03970805119
scalar TestScenario.uninfected[21].veinsmobility startTime 22
scalar TestScenario.uninfected[21].veinsmobility totalTime 57
scalar TestScenario.uninfected[21].veinsmobility stopTime 79.000238287678
scalar TestScenario.uninfected[21].veinsmobility minSpeed 3.9773538981508
scalar TestScenario.uninfected[21].veinsmobility maxSpeed 13.888723053578
scalar TestScenario.uninfected[21].veinsmobility totalDistance 647.7787133788
scalar TestScenario.uninfected[21].veinsmobility totalCO2Emission 169.2774740487
scalar TestScenario.uninfected[22].appl generatedWSMs 50
scalar TestScenario.uninfected[22].appl receivedWSMs 81
scalar TestScenario.uninfected[22].appl generatedBSMs 0
scalar TestScenario.uninfected[22].appl receivedBSMs 0
scalar TestScenario.uninfected[22].appl generatedWSAs 0
scalar TestScenario.uninfected[22].appl receivedWSAs 0
scalar TestScenario.uninfected[22].nic.phy80211p busyTime 0.0013754227188163
scalar TestScenario.uninfected[22].nic.mac1609_4 ReceivedUnicastPackets 0
scalar TestScenario.uninfected[22].nic.mac1609_4 ReceivedBroadcasts 81
scalar TestScenario.uninfected[22].nic.mac1609_4 SentPackets 49
scalar TestScenario.uninfected[22].nic.mac1609_4 SentAcknowledgements 0
scalar TestScenario.uninfected[22].nic.mac1609_4 SNIRLostPackets 250
scalar TestScenario.uninfected[22].nic.mac1609_4 RXTXLostPackets 163
scalar TestScenario.uninfected[22].nic.mac1609_4 TotalLostPackets 413
scalar TestScenario.uninfected[22].nic.mac1609_4 DroppedPacketsInMac 0
scalar TestScenario.uninfected[22].nic.mac1609_4 TooLittleTime 0
scalar TestScenario.uninfected[22].nic.mac1609_4 TimesIntoBackoff 49
scalar TestScenario.uninfected[22].nic.mac1609_4 SlotsBackoff 64
scalar TestScenario.uninfected[22].nic.mac1609_4 NumInternalContention 0
scalar TestScenario.uninfected[22].nic.mac1609_4 totalBusyTime 0.041810230278
scalar TestScenario.uninfected[22].veinsmobility startTime 23
scalar TestScenario.uninfected[22].veinsmobility totalTime 56
scalar TestScenario.uninfected[22].veinsmobility stopTime 79.000238287678
scalar TestScenario.uninfected[22].veinsmobility minSpeed 0
scalar TestScenario.uninfected[22].veinsmobility maxSpeed 13.862487124004
scalar TestScenario.uninfected[22].veinsmobility totalDistance 376.53013834212
scalar TestScenario.uninfected[22].veinsmobility totalCO2Emission 130.36557255839
scalar TestScenario.uninfected[25].appl generatedWSMs 40
scalar TestScenario.uninfected[25].appl receivedWSMs 67
scalar TestScenario.uninfected[25].appl generatedBSMs 0
scalar TestScenario.uninfected[25].appl receivedBSMs 0
scalar TestScenario.uninfected[25].appl generatedWSAs 0
scalar TestScenario.uninfected[25].appl receivedWSAs 0
scalar TestScenario.uninfected[25].nic.phy80211p busyTime 0.00066973283794183
scalar TestScenario.uninfected[25].nic.mac1609_4 ReceivedUnicastPackets 0
scalar TestScenario.uninfected[25].nic.mac1609_4 ReceivedBroadcasts 67
scalar TestScenario.uninfected[25].nic.mac1609_4 SentPackets 40
scalar TestScenario.uninfected[25].nic.mac1609_4 SentAcknowledgements 0
scalar TestScenario.uninfected[25].nic.mac1609_4 SNIRLostPackets 85
scalar TestScenario.uninfected[25].nic.mac1609_4 RXTXLostPackets 84
scalar TestScenario.uninfected[25].nic.mac1609_4 TotalLostPackets 169
scalar TestScenario.uninfected[25].nic.mac1609_4 DroppedPacketsInMac 0
scalar TestScenario.uninfected[25].nic.mac1609_4 TooLittleTime 0
scalar TestScenario.uninfected[25].nic.mac1609_4 TimesIntoBackoff 40
scalar TestScenario.uninfected[25].nic.mac1609_4 SlotsBackoff 62
scalar TestScenario.uninfected[25].nic.mac1609_4 NumInternalContention 0
scalar TestScenario.uninfected[25].nic.mac1609_4 totalBusyTime 0.031592339989
scalar TestScenario.uninfected[25].veinsmobility startTime 26
scalar TestScenario.uninfected[25].veinsmobility totalTime 53
scalar TestScenario.uninfected[25].veinsmobility stopTime 79.000238287678
scalar TestScenario.uninfected[25].veinsmobility minSpeed 3.8252822404029
scalar TestScenario.uninfected[25].veinsmobility maxSpeed 13.889854134803
scalar TestScenario.uninfected[25].veinsmobility totalDistance 653.56198305393
scalar TestScenario.uninfected[25].veinsmobility totalCO2Emission 144.90671988372
scalar TestScenario.uninfected[26].appl generatedWSMs 28
scalar TestScenario.uninfected[26].appl receivedWSMs 63
scalar TestScenario.uninfected[26].appl generatedBSMs 0
scalar TestScenario.uninfected[26].appl receivedBSMs 0
scalar TestScenario.uninfected[26].appl generatedWSAs 0
scalar TestScenario.uninfected[26].appl receivedWSAs 0
scalar TestScenario.uninfected[26].nic.phy80211p busyTime 0.0022664511525503
scalar TestScenario.uninfected[26].nic.mac1609_4 ReceivedUnicastPackets 0
scalar TestScenario.uninfected[26].nic.mac1609_4 ReceivedBroadcasts 63
scalar TestScenario.uninfected[26].nic.mac1609_4 SentPackets 27
scalar TestScenario.uninfected[26].nic.mac1609_4 SentAcknowledgements 0
scalar TestScenario.uninfected[26].nic.mac1609_4 SNIRLostPackets 441
scalar TestScenario.uninfected[26].nic.mac1609_4 RXTXLostPackets 158
scalar TestScenario.uninfected[26].nic.mac1609_4 TotalLostPackets 599
scalar TestScenario.uninfected[26].nic.mac1609_4 DroppedPacketsInMac 0
scalar TestScenario.uninfected[26].nic.mac1609_4 TooLittleTime 0
scalar TestScenario.uninfected[26].nic.mac1609_4 TimesIntoBackoff 27
scalar TestScenario.uninfected[26].nic.mac1609_4 SlotsBackoff 38
scalar TestScenario.uninfected[26].nic.mac1609_4 NumInternalContention 0
scalar TestScenario.uninfected[26].nic.mac1609_4 totalBusyTime 0.043643
scalar TestScenario.uninfected[26].veinsmobility startTime 27
scalar TestScenario.uninfected[26].veinsmobility totalTime 52
scalar TestScenario.uninfected[26].veinsmobility stopTime 79.000238287678
scalar TestScenario.uninfected[26].veinsmobility minSpeed 3.5707055925581
scalar TestScenario.uninfected[26].veinsmobility maxSpeed 13.888024646461
scalar TestScenario.uninfected[26].veinsmobility totalDistance 579.474428617
scalar TestScenario.uninfected[26].veinsmobility totalCO2Emission 156.27531917318
scalar TestScenario.uninfected[27].appl generatedWSMs 39
scalar TestScenario.uninfected[27].appl receivedWSMs 70
scalar TestScenario.uninfected[27].appl generatedBSMs 0
scalar TestScenario.uninfected[27].appl receivedBSMs 0
scalar TestScenario.uninfected[27].appl generatedWSAs 0
scalar TestScenario.uninfected[27].appl receivedWSAs 0
scalar TestScenario.uninfected[27].nic.phy80211p busyTime 0.0013237585208756
scalar TestScenario.uninfected[27].nic.mac1609_4 ReceivedUnicastPackets 0
scalar TestScenario.uninfected[27].nic.mac1609_4 ReceivedBroadcasts 70
scalar TestScenario.uninfected[27].nic.mac1609_4 SentPackets 39
scalar TestScenario.uninfected[27].nic.mac1609_4 SentAcknowledgements 0
scalar TestScenario.uninfected[27].nic.mac1609_4 SNIRLostPackets 218
scalar TestScenario.uninfected[27].nic.mac1609_4 RXTXLostPackets 166
scalar TestScenario.uninfected[27].nic.mac1609_4 TotalLostPackets 384
scalar TestScenario.uninfected[27].nic.mac1609_4 DroppedPacketsInMac 0
scalar TestScenario.uninfected[27].nic.mac1609_4 TooLittleTime 0
scalar TestScenario.uninfected[27].nic.mac1609_4 TimesIntoBackoff 39
scalar TestScenario.uninfected[27].nic.mac1609_4 SlotsBackoff 57
scalar TestScenario.uninfected[27].nic.mac1609_4 NumInternalContention 0
scalar TestScenario.uninfected[27].nic.mac1609_4 totalBusyTime 0.038319142694
scalar TestScenario.uninfected[27].veinsmobility startTime 28
scalar TestScenario.uninfected[27].veinsmobility totalTime 51
scalar TestScenario.uninfected[27].veinsmobility stopTime 79.000238287678
scalar TestScenario.uninfected[27].veinsmobility minSpeed 3.8640796656667
scalar TestScenario.uninfected[27].veinsmobility maxSpeed 13.88679100526
scalar TestScenario.uninfected[27].veinsmobility totalDistance 583.22922851052
scalar TestScenario.uninfected[27].veinsmobility totalCO2Emission 155.22873663732
scalar TestScenario.uninfected[29].appl generatedWSMs 38
scalar TestScenario.uninfected[29].appl receivedWSMs 62
scalar TestScenario.uninfected[29].appl generatedBSMs 0
scalar TestScenario.uninfected[29].appl receivedBSMs 0
scalar TestScenario.uninfected[29].appl generatedWSAs 0
scalar TestScenario.uninfected[29].appl receivedWSAs 0
scalar TestScenario.uninfected[29].nic.phy80211p busyTime 0.0012688917885454
scalar TestScenario.uninfected[29].nic.mac1609_4 ReceivedUnicastPackets 0
scalar TestScenario.uninfected[29].nic.mac1609_4 ReceivedBroadcasts 62
scalar TestScenario.uninfected[29].nic.mac1609_4 SentPackets 38
scalar TestScenario.uninfected[29].nic.mac1609_4 SentAcknowledgements 0
scalar TestScenario.uninfected[29].nic.mac1609_4 SNIRLostPackets 206
scalar TestScenario.uninfected[29].nic.mac1609_4 RXTXLostPackets 117
scalar TestScenario.uninfected[29].nic.mac1609_4 TotalLostPackets 323
scalar TestScenario.uninfected[29].nic.mac1609_4 DroppedPacketsInMac 0
scalar TestScenario.uninfected[29].nic.mac1609_4 TooLittleTime 0
scalar TestScenario.uninfected[29].nic.mac1609_4 TimesIntoBackoff 37
scalar TestScenario.uninfected[29].nic.mac1609_4 SlotsBackoff 62
scalar TestScenario.uninfected[29].nic.mac1609_4 NumInternalContention 0
scalar TestScenario.uninfected[29].nic.mac1609_4 totalBusyTime 0.037389151896
scalar TestScenario.uninfected[29].veinsmobility startTime 30
scalar TestScenario.uninfected[29].veinsmobility totalTime 49
scalar TestScenario.uninfected[29].veinsmobility stopTime 79.000238287678
scalar TestScenario.uninfected[29].veinsmobility minSpeed 3.9729070189121
scalar TestScenario.uninfected[29].veinsmobility maxSpeed 13.863062280165
scalar TestScenario.uninfected[29].veinsmobility totalDistance 573.31243948813
scalar TestScenario.uninfected[29].veinsmobility totalCO2Emission 131.46427317434
scalar TestScenario.uninfected[30].appl generatedWSMs 32
scalar TestScenario.uninfected[30].appl receivedWSMs 65
scalar TestScenario.uninfected[30].appl generatedBSMs 0
scalar TestScenario.uninfected[30].appl receivedBSMs 0
scalar TestScenario.uninfected[30].appl generatedWSAs 0
scalar TestScenario.uninfected[30].appl receivedWSAs 0
scalar TestScenario.uninfected[30].nic.phy80211p busyTime 0.0017206581247577
scalar TestScenario.uninfected[30].nic.mac1609_4 ReceivedUnicastPackets 0
scalar TestScenario.uninfected[30].nic.mac1609_4 ReceivedBroadcasts 65
scalar TestScenario.uninfected[30].nic.mac1609_4 SentPackets 32
scalar TestScenario.uninfected[30].nic.mac1609_4 SentAcknowledgements 0
scalar TestScenario.uninfected[30].nic.mac1609_4 SNIRLostPackets 291
scalar TestScenario.uninfected[30].nic.mac1609_4 RXTXLostPackets 170
scalar TestScenario.uninfected[30].nic.mac1609_4 TotalLostPackets 461
scalar TestScenario.uninfected[30].nic.mac1609_4 DroppedPacketsInMac 0
scalar TestScenario.uninfected[30].nic.mac1609_4 TooLittleTime 0
scalar TestScenario.uninfected[30].nic.mac1609_4 TimesIntoBackoff 33
scalar TestScenario.uninfected[30].nic.mac1609_4 SlotsBackoff 45
scalar TestScenario.uninfected[30].nic.mac1609_4 NumInternalContention 0
scalar TestScenario.uninfected[30].nic.mac1609_4 totalBusyTime 0.03784833946
scalar TestScenario.uninfected[30].veinsmobility startTime 31
scalar TestScenario.uninfected[30].veinsmobility totalTime 48
scalar TestScenario.uninfected[30].veinsmobility stopTime 79.000238287678
scalar TestScenario.uninfected[30].veinsmobility minSpeed 3.748875256705
scalar TestScenario.uninfected[30].veinsmobility maxSpeed 13.888649358181
scalar TestScenario.uninfected[30].veinsmobility totalDistance 573.27147746986
scalar TestScenario.uninfected[30].veinsmobility totalCO2Emission 133.39721193316
scalar TestScenario.uninfected[31].appl generatedWSMs 28
scalar TestScenario.uninfected[31].appl receivedWSMs 70
scalar TestScenario.uninfected[31].appl generatedBSMs 0
scalar TestScenario.uninfected[31].appl receivedBSMs 0
scalar TestScenario.uninfected[31].appl generatedWSAs 0
scalar TestScenario.uninfected[31].appl receivedWSAs 0
scalar TestScenario.uninfected[31].nic.phy80211p busyTime 0.0017622038316711
scalar TestScenario.uninfected[31].nic.mac1609_4 ReceivedUnicastPackets 0
scalar TestScenario.uninfected[31].nic.mac1609_4 ReceivedBroadcasts 70
scalar TestScenario.uninfected[31].nic.mac1609_4 SentPackets 28
scalar TestScenario.uninfected[31].nic.mac1609_4 SentAcknowledgements 0
scalar TestScenario.uninfected[31].nic.mac1609_4 SNIRLostPackets 285
scalar TestScenario.uninfected[31].nic.mac1609_4 RXTXLostPackets 154
scalar TestScenario.uninfected[31].nic.mac1609_4 TotalLostPackets 439
scalar TestScenario.uninfected[31].nic.mac1609_4 DroppedPacketsInMac 0
scalar TestScenario.uninfected[31].nic.mac1609_4 TooLittleTime 0
scalar TestScenario.uninfected[31].nic.mac1609_4 TimesIntoBackoff 29
scalar TestScenario.uninfected[31].nic.mac1609_4 SlotsBackoff 54
scalar TestScenario.uninfected[31].nic.mac1609_4 NumInternalContention 0
scalar TestScenario.uninfected[31].nic.mac1609_4 totalBusyTime 0.037612936516
scalar TestScenario.uninfected[31].veinsmobility startTime 32
scalar TestScenario.uninfected[31].veinsmobility totalTime 47
scalar TestScenario.uninfected[31].veinsmobility stopTime 79.000238287678
scalar TestScenario.uninfected[31].veinsmobility minSpeed 0
scalar TestScenario.uninfected[31].veinsmobility maxSpeed 13.885794119532
scalar TestScenario.uninfected[31].veinsmobility totalDistance 418.83183904103
scalar TestScenario.uninfected[31].veinsmobility totalCO2Emission 144.43486082087
scalar TestScenario.uninfected[33].appl generatedWSMs 28
scalar TestScenario.uninfected[33].appl receivedWSMs 47
scalar TestScenario.uninfected[33].appl generatedBSMs 0
scalar TestScenario.uninfected[33].appl receivedBSMs 0
scalar TestScenario.uninfected[33].appl generatedWSAs 0
scalar TestScenario.uninfected[33].appl receivedWSAs 0
scalar TestScenario.uninfected[33].nic.phy80211p busyTime 0.00088675085995993
scalar TestScenario.uninfected[33].nic.mac1609_4 ReceivedUnicastPackets 0
scalar TestScenario.uninfected[33].nic.mac1609_4 ReceivedBroadcasts 47
scalar TestScenario.uninfected[33].nic.mac1609_4 SentPackets 28
scalar TestScenario.uninfected[33].nic.mac1609_4 SentAcknowledgements 0
scalar TestScenario.uninfected[33].nic.mac1609_4 SNIRLostPackets 125
scalar TestScenario.uninfected[33].nic.mac1609_4 RXTXLostPackets 45
scalar TestScenario.uninfected[33].nic.mac1609_4 TotalLostPackets 170
scalar TestScenario.uninfected[33].nic.mac1609_4 DroppedPacketsInMac 0
scalar TestScenario.uninfected[33].nic.mac1609_4 TooLittleTime 0
scalar TestScenario.uninfected[33].nic.mac1609_4 TimesIntoBackoff 27
scalar TestScenario.uninfected[33].nic.mac1609_4 SlotsBackoff 30
scalar TestScenario.uninfected[33].nic.mac1609_4 NumInternalContention 0
scalar TestScenario.uninfected[33].nic.mac1609_4 totalBusyTime 0.027635102989
scalar TestScenario.uninfected[33].veinsmobility startTime 34
scalar TestScenario.uninfected[33].veinsmobility totalTime 45
scalar TestScenario.uninfected[33].veinsmobility stopTime 79.000238287678
scalar TestScenario.uninfected[33].veinsmobility minSpeed 4.2181048247584
scalar TestScenario.uninfected[33].veinsmobility maxSpeed 13.889036190065
scalar TestScenario.uninfected[33].veinsmobility totalDistance 582.76347188228
scalar TestScenario.uninfected[33].veinsmobility totalCO2Emission 108.40733512632
scalar TestScenario.uninfected[34].appl generatedWSMs 40
scalar TestScenario.uninfected[34].appl receivedWSMs 66
scalar TestScenario.uninfected[34].appl generatedBSMs 0
scalar TestScenario.uninfected[34].appl receivedBSMs 0
scalar TestScenario.uninfected[34].appl generatedWSAs 0
scalar TestScenario.uninfected[34].appl receivedWSAs 0
scalar TestScenario.uninfected[34].nic.phy80211p busyTime 0.0011494483204688
scalar TestScenario.uninfected[34].nic.mac1609_4 ReceivedUnicastPackets 0
scalar TestScenario.uninfected[34].nic.mac1609_4 ReceivedBroadcasts 66
scalar TestScenario.uninfected[34].nic.mac1609_4 SentPackets 40
scalar TestScenario.uninfected[34].nic.mac1609_4 SentAcknowledgements 0
scalar TestScenario.uninfected[34].nic.mac1609_4 SNIRLostPackets 148
scalar TestScenario.uninfected[34].nic.mac1609_4 RXTXLostPackets 201
scalar TestScenario.uninfected[34].nic.mac1609_4 TotalLostPackets 349
scalar TestScenario.uninfected[34].nic.mac1609_4 DroppedPacketsInMac 0
scalar TestScenario.uninfected[34].nic.mac1609_4 TooLittleTime 0
scalar TestScenario.uninfected[34].nic.mac1609_4 TimesIntoBackoff 40
scalar TestScenario.uninfected[34].nic.mac1609_4 SlotsBackoff 68
scalar TestScenario.uninfected[34].nic.mac1609_4 NumInternalContention 0
scalar TestScenario.uninfected[34].nic.mac1609_4 totalBusyTime 0.032520309566
scalar TestScenario.uninfected[34].veinsmobility startTime 35
scalar TestScenario.uninfected[34].veinsmobility totalTime 44
scalar TestScenario.uninfected[34].veinsmobility stopTime 79.000238287678
scalar TestScenario.uninfected[34].veinsmobility minSpeed 3.8295937978921
scalar TestScenario.uninfected[34].veinsmobility maxSpeed 13.887312619174
scalar TestScenario.uninfected[34].veinsmobility totalDistance 540.97915471651
scalar TestScenario.uninfected[34].veinsmobility totalCO2Emission 124.13604916055
scalar TestScenario.uninfected[35].appl generatedWSMs 24
scalar TestScenario.uninfected[35].appl receivedWSMs 51
scalar TestScenario.uninfected[35].appl generatedBSMs 0
scalar TestScenario.uninfected[35].appl receivedBSMs 0
scalar TestScenario.uninfected[35].appl generatedWSAs 0
scalar TestScenario.uninfected[35].appl receivedWSAs 0
scalar TestScenario.uninfected[35].nic.phy80211p busyTime 0.0018344084391412
scalar TestScenario.uninfected[35].nic.mac1609_4 ReceivedUnicastPackets 0
scalar TestScenario.uninfected[35].nic.mac1609_4 ReceivedBroadcasts 51
scalar TestScenario.uninfected[35].nic.mac1609_4 SentPackets 24
scalar TestScenario.uninfected[35].nic.mac1609_4 SentAcknowledgements 0
scalar TestScenario.uninfected[35].nic.mac1609_4 SNIRLostPackets 288
scalar TestScenario.uninfected[35].nic.mac1609_4 RXTXLostPackets 155
scalar TestScenario.uninfected[35].nic.mac1609_4 TotalLostPackets 443
scalar TestScenario.uninfected[35].nic.mac1609_4 DroppedPacketsInMac 0
scalar TestScenario.uninfected[35].nic.mac1609_4 TooLittleTime 0
scalar TestScenario.uninfected[35].nic.mac1609_4 TimesIntoBackoff 24
scalar TestScenario.uninfected[35].nic.mac1609_4 SlotsBackoff 38
scalar TestScenario.uninfected[35].nic.mac1609_4 NumInternalContention 0
scalar TestScenario.uninfected[35].nic.mac1609_4 totalBusyTime 0.032040491177
scalar TestScenario.uninfected[35].veinsmobility startTime 36
scalar TestScenario.uninfected[35].veinsmobility totalTime 43
scalar TestScenario.uninfected[35].veinsmobility stopTime 79.000238287678
scalar TestScenario.uninfected[35].veinsmobility minSpeed 3.5241763998452
scalar TestScenario.uninfected[35].veinsmobility maxSpeed 13.886771579026
scalar TestScenario.uninfected[35].veinsmobility totalDistance 439.6425621753
scalar TestScenario.uninfected[35].veinsmobility totalCO2Emission 139.7643415202
scalar TestScenario.uninfected[36].appl generatedWSMs 23
scalar TestScenario.uninfected[36].appl receivedWSMs 46
scalar TestScenario.uninfected[36].appl generatedBSMs 0
scalar TestScenario.uninfected[36].appl receivedBSMs 0
scalar TestScenario.uninfected[36].appl generatedWSAs 0
scalar TestScenario.uninfected[36].appl receivedWSAs 0
scalar TestScenario.uninfected[36].nic.phy80211p busyTime 0.00091694717863776
scalar TestScenario.uninfected[36].nic.mac1609_4 ReceivedUnicastPackets 0
scalar TestScenario.uninfected[36].nic.mac1609_4 ReceivedBroadcasts 46
scalar TestScenario.uninfected[36].nic.mac1609_4 SentPackets 23
scalar TestScenario.uninfected[36].nic.mac1609_4 SentAcknowledgements 0
scalar TestScenario.uninfected[36].nic.mac1609_4 SNIRLostPackets 120
scalar TestScenario.uninfected[36].nic.mac1609_4 RXTXLostPackets 68
scalar TestScenario.uninfected[36].nic.mac1609_4 TotalLostPackets 188
scalar TestScenario.uninfected[36].nic.mac1609_4 DroppedPacketsInMac 0
scalar TestScenario.uninfected[36].nic.mac1609_4 TooLittleTime 0
scalar TestScenario.uninfected[36].nic.mac1609_4 TimesIntoBackoff 23
scalar TestScenario.uninfected[36].nic.mac1609_4 SlotsBackoff 33
scalar TestScenario.uninfected[36].nic.mac1609_4 NumInternalContention 0
scalar TestScenario.uninfected[36].nic.mac1609_4 totalBusyTime 0.024383101699
scalar TestScenario.uninfected[36].veinsmobility startTime 37
scalar TestScenario.uninfected[36].veinsmobility totalTime 42
scalar TestScenario.uninfected[36].veinsmobility stopTime 79.000238287678
scalar TestScenario.uninfected[36].veinsmobility minSpeed 3.8502084553754
scalar TestScenario.uninfected[36].veinsmobility maxSpeed 13.88939373153
scalar TestScenario.uninfected[36].veinsmobility totalDistance 472.34020633497
scalar TestScenario.uninfected[36].veinsmobility totalCO2Emission 137.85142798801
scalar TestScenario.uninfected[37].appl generatedWSMs 32
scalar TestScenario.uninfected[37].appl receivedWSMs 51
scalar TestScenario.uninfected[37].appl generatedBSMs 0
scalar TestScenario.uninfected[37].appl receivedBSMs 0
scalar TestScenario.uninfected[37].appl generatedWSAs 0
scalar TestScenario.uninfected[37].appl receivedWSAs 0
scalar TestScenario.uninfected[37].nic.phy80211p busyTime 0.001516478991262
scalar TestScenario.uninfected[37].nic.mac1609_4 ReceivedUnicastPackets 0
scalar TestScenario.uninfected[37].nic.mac1609_4 ReceivedBroadcasts 51
scalar TestScenario.uninfected[37].nic.mac1609_4 SentPackets 32
scalar TestScenario.uninfected[37].nic.mac1609_4 SentAcknowledgements 0
scalar TestScenario.uninfected[37].nic.mac1609_4 SNIRLostPackets 216
scalar TestScenario.uninfected[37].nic.mac1609_4 RXTXLostPackets 179
scalar TestScenario.uninfected[37].nic.mac1609_4 TotalLostPackets 395
scalar TestScenario.uninfected[37].nic.mac1609_4 DroppedPacketsInMac 0
scalar TestScenario.uninfected[37].nic.mac1609_4 TooLittleTime 0
scalar TestScenario.uninfected[37].nic.mac1609_4 TimesIntoBackoff 32
scalar TestScenario.uninfected[37].nic.mac1609_4 SlotsBackoff 51
scalar TestScenario.uninfected[37].nic.mac1609_4 NumInternalContention 0
scalar TestScenario.uninfected[37].nic.mac1609_4 totalBusyTime 0.030425211194
scalar TestScenario.uninfected[37].veinsmobility startTime 38
scalar TestScenario.uninfected[37].veinsmobility totalTime 41
scalar TestScenario.uninfected[37].veinsmobility stopTime 79.000238287678
scalar TestScenario.uninfected[37].veinsmobility minSpeed 3.9905524540473
scalar TestScenario.uninfected[37].veinsmobility maxSpeed 13.855301514184
scalar TestScenario.uninfected[37].veinsmobility totalDistance 492.05201360595
scalar TestScenario.uninfected[37].veinsmobility totalCO2Emission 124.58088846471
scalar TestScenario.uninfected[39].appl generatedWSMs 17
scalar TestScenario.uninfected[39].appl receivedWSMs 38
scalar TestScenario.uninfected[39].appl generatedBSMs 0
scalar TestScenario.uninfected[39].appl receivedBSMs 0
scalar TestScenario.uninfected[39].appl generatedWSAs 0
scalar TestScenario.uninfected[39].appl receivedWSAs 0
scalar TestScenario.uninfected[39].nic.phy80211p busyTime 0.0012313770917439
scalar TestScenario.uninfected[39].nic.mac1609_4 ReceivedUnicastPackets 0
scalar TestScenario.uninfected[39].nic.mac1609_4 ReceivedBroadcasts 38
scalar TestScenario.uninfected[39].nic.mac1609_4 SentPackets 17
scalar TestScenario.uninfected[39].nic.mac1609_4 SentAcknowledgements 0
scalar TestScenario.uninfected[39].nic.mac1609_4 SNIRLostPackets 169
scalar TestScenario.uninfected[39].nic.mac1609_4 RXTXLostPackets 46
scalar TestScenario.uninfected[39].nic.mac1609_4 TotalLostPackets 215
scalar TestScenario.uninfected[39].nic.mac1609_4 DroppedPacketsInMac 0
scalar TestScenario.uninfected[39].nic.mac1609_4 TooLittleTime 0
scalar TestScenario.uninfected[39].nic.mac1609_4 TimesIntoBackoff 17
scalar TestScenario.uninfected[39].nic.mac1609_4 SlotsBackoff 25
scalar TestScenario.uninfected[39].nic.mac1609_4 NumInternalContention 0
scalar TestScenario.uninfected[39].nic.mac1609_4 totalBusyTime 0.023913
scalar TestScenario.uninfected[39].veinsmobility startTime 40
scalar TestScenario.uninfected[39].veinsmobility totalTime 39
scalar TestScenario.uninfected[39].veinsmobility stopTime 79.000238287678
scalar TestScenario.uninfected[39].veinsmobility minSpeed 3.507570754505
scalar TestScenario.uninfected[39].veinsmobility maxSpeed 13.883288972762
scalar TestScenario.uninfected[39].veinsmobility totalDistance 423.86634308913
scalar TestScenario.uninfected[39].veinsmobility totalCO2Emission 130.90463394429
scalar TestScenario.uninfected[4].appl generatedWSMs 38
scalar TestScenario.uninfected[4].appl receivedWSMs 82
scalar TestScenario.uninfected[4].appl generatedBSMs 0
scalar TestScenario.uninfected[4].appl receivedBSMs 0
scalar TestScenario.uninfected[4].appl generatedWSAs 0
scalar TestScenario.uninfected[4].appl receivedWSAs 0
scalar TestScenario.uninfected[4].nic.phy80211p busyTime 0.0013763198924315
scalar TestScenario.uninfected[4].nic.mac1609_4 ReceivedUnicastPackets 0
scalar TestScenario.uninfected[4].nic.mac1609_4 ReceivedBroadcasts 82
scalar TestScenario.uninfected[4].nic.mac1609_4 SentPackets 38
scalar TestScenario.uninfected[4].nic.mac1609_4 SentAcknowledgements 0
scalar TestScenario.uninfected[4].nic.mac1609_4 SNIRLostPackets 354
scalar TestScenario.uninfected[4].nic.mac1609_4 RXTXLostPackets 195
scalar TestScenario.uninfected[4].nic.mac1609_4 TotalLostPackets 549
scalar TestScenario.uninfected[4].nic.mac1609_4 DroppedPacketsInMac 0
scalar TestScenario.uninfected[4].nic.mac1609_4 TooLittleTime 0
scalar TestScenario.uninfected[4].nic.mac1609_4 TimesIntoBackoff 38
scalar TestScenario.uninfected[4].nic.mac1609_4 SlotsBackoff 45
scalar TestScenario.uninfected[4].nic.mac1609_4 NumInternalContention 0
scalar TestScenario.uninfected[4].nic.mac1609_4 totalBusyTime 0.049918356173
scalar TestScenario.uninfected[4].veinsmobility startTime 5
scalar TestScenario.uninfected[4].veinsmobility totalTime 74
scalar TestScenario.uninfected[4].veinsmobility stopTime 79.000238287678
scalar TestScenario.uninfected[4].veinsmobility minSpeed 2.7432371396556
scalar TestScenario.uninfected[4].veinsmobility maxSpeed 13.886014063652
scalar TestScenario.uninfected[4].veinsmobility totalDistance 892.48523429487
scalar TestScenario.uninfected[4].veinsmobility totalCO2Emission 202.54952036803
scalar TestScenario.uninfected[40].appl generatedWSMs 31
scalar TestScenario.uninfected[40].appl receivedWSMs 53
scalar TestScenario.uninfected[40].appl generatedBSMs 0
scalar TestScenario.uninfected[40].appl receivedBSMs 0
scalar TestScenario.uninfected[40].appl generatedWSAs 0
scalar TestScenario.uninfected[40].appl receivedWSAs 0
scalar TestScenario.uninfected[40].nic.phy80211p busyTime 0.0013431494722113
scalar TestScenario.uninfected[40].nic.mac1609_4 ReceivedUnicastPackets 0
scalar TestScenario.uninfected[40].nic.mac1609_4 ReceivedBroadcasts 53
scalar TestScenario.uninfected[40].nic.mac1609_4 SentPackets 31
scalar TestScenario.uninfected[40].nic.mac1609_4 SentAcknowledgements 0
scalar TestScenario.uninfected[40].nic.mac1609_4 SNIRLostPackets 163
scalar TestScenario.uninfected[40].nic.mac1609_4 RXTXLostPackets 136
scalar TestScenario.uninfected[40].nic.mac1609_4 TotalLostPackets 299
scalar TestScenario.uninfected[40].nic.mac1609_4 DroppedPacketsInMac 0
scalar TestScenario.uninfected[40].nic.mac1609_4 TooLittleTime 0
scalar TestScenario.uninfected[40].nic.mac1609_4 TimesIntoBackoff 31
scalar TestScenario.uninfected[40].nic.mac1609_4 SlotsBackoff 50
scalar TestScenario.uninfected[40].nic.mac1609_4 NumInternalContention 0
scalar TestScenario.uninfected[40].nic.mac1609_4 totalBusyTime 0.030191544338
scalar TestScenario.uninfected[40].veinsmobility startTime 41
scalar TestScenario.uninfected[40].veinsmobility totalTime 38
scalar TestScenario.uninfected[40].veinsmobility stopTime 79.000238287678
scalar TestScenario.uninfected[40].veinsmobility minSpeed 3.5555500253523
scalar TestScenario.uninfected[40].veinsmobility maxSpeed 13.88047193703
scalar TestScenario.uninfected[40].veinsmobility totalDistance 373.89468241382
scalar TestScenario.uninfected[40].veinsmobility totalCO2Emission 107.39949323364
scalar TestScenario.exploited[41].appl generatedWSMs 27
scalar TestScenario.exploited[41].appl receivedWSMs 51
scalar TestScenario.exploited[41].appl generatedBSMs 0
scalar TestScenario.exploited[41].appl receivedBSMs 0
scalar TestScenario.exploited[41].appl generatedWSAs 0
scalar TestScenario.exploited[41].appl receivedWSAs 0
scalar TestScenario.exploited[41].nic.phy80211p busyTime 0.0017657660899916
scalar TestScenario.exploited[41].nic.mac1609_4 ReceivedUnicastPackets 0
scalar TestScenario.exploited[41].nic.mac1609_4 ReceivedBroadcasts 51
scalar TestScenario.exploited[41].nic.mac1609_4 SentPackets 27
scalar TestScenario.exploited[41].nic.mac1609_4 SentAcknowledgements 0
scalar TestScenario.exploited[41].nic.mac1609_4 SNIRLostPackets 223
scalar TestScenario.exploited[41].nic.mac1609_4 RXTXLostPackets 120
scalar TestScenario.exploited[41].nic.mac1609_4 TotalLostPackets 343
scalar TestScenario.exploited[41].nic.mac1609_4 DroppedPacketsInMac 0
scalar TestScenario.exploited[41].nic.mac1609_4 TooLittleTime 0
scalar TestScenario.exploited[41].nic.mac1609_4 TimesIntoBackoff 27
scalar TestScenario.exploited[41].nic.mac1609_4 SlotsBackoff 36
scalar TestScenario.exploited[41].nic.mac1609_4 NumInternalContention 0
scalar TestScenario.exploited[41].nic.mac1609_4 totalBusyTime 0.02949321786
scalar TestScenario.exploited[41].veinsmobility startTime 43
scalar TestScenario.exploited[41].veinsmobility totalTime 36
scalar TestScenario.exploited[41].veinsmobility stopTime 79.000238287678
scalar TestScenario.exploited[41].veinsmobility minSpeed 2.771949695573
scalar TestScenario.exploited[41].veinsmobility maxSpeed 13.887231185827
scalar TestScenario.exploited[41].veinsmobility totalDistance 366.76293311062
scalar TestScenario.exploited[41].veinsmobility totalCO2Emission 105.25735247524
scalar TestScenario.uninfected[42].appl generatedWSMs 32
scalar TestScenario.uninfected[42].appl receivedWSMs 53
scalar TestScenario.uninfected[42].appl generatedBSMs 0
scalar TestScenario.uninfected[42].appl receivedBSMs 0
scalar TestScenario.uninfected[42].appl generatedWSAs 0
scalar TestScenario.uninfected[42].appl receivedWSAs 0
scalar TestScenario.uninfected[42].nic.phy80211p busyTime 0.0015273232238249
scalar TestScenario.uninfected[42].nic.mac1609_4 ReceivedUnicastPackets 0
scalar TestScenario.uninfected[42].nic.mac1609_4 ReceivedBroadcasts 53
scalar TestScenario.uninfected[42].nic.mac1609_4 SentPackets 32
scalar TestScenario.uninfected[42].nic.mac1609_4 SentAcknowledgements 0
scalar TestScenario.uninfected[42].nic.mac1609_4 SNIRLostPackets 180
scalar TestScenario.uninfected[42].nic.mac1609_4 RXTXLostPackets 203
scalar TestScenario.uninfected[42].nic.mac1609_4 TotalLostPackets 383
scalar TestScenario.uninfected[42].nic.mac1609_4 DroppedPacketsInMac 0
scalar TestScenario.uninfected[42].nic.mac1609_4 TooLittleTime 0
scalar TestScenario.uninfected[42].nic.mac1609_4 TimesIntoBackoff 32
scalar TestScenario.uninfected[42].nic.mac1609_4 SlotsBackoff 42
scalar TestScenario.uninfected[42].nic.mac1609_4 NumInternalContention 0
scalar TestScenario.uninfected[42].nic.mac1609_4 totalBusyTime 0.029496529503
scalar TestScenario.uninfected[42].veinsmobility startTime 43
scalar TestScenario.uninfected[42].veinsmobility totalTime 36
scalar TestScenario.uninfected[42].veinsmobility stopTime 79.000238287678
scalar TestScenario.uninfected[42].veinsmobility minSpeed 3.5883340453952
scalar TestScenario.uninfected[42].veinsmobility maxSpeed 13.883672060466
scalar TestScenario.uninfected[42].veinsmobility totalDistance 379.1908837259
scalar TestScenario.uninfected[42].veinsmobility totalCO2Emission 107.77577038643
scalar TestScenario.exploited[43].appl generatedWSMs 19
scalar TestScenario.exploited[43].appl receivedWSMs 35
scalar TestScenario.exploited[43].appl generatedBSMs 0
scalar TestScenario.exploited[43].appl receivedBSMs 0
scalar TestScenario.exploited[43].appl generatedWSAs 0
scalar TestScenario.exploited[43].appl receivedWSAs 0
scalar TestScenario.exploited[43].nic.phy80211p busyTime 0.0010870783132181
scalar TestScenario.exploited[43].nic.mac1609_4 ReceivedUnicastPackets 0
scalar TestScenario.exploited[43].nic.mac1609_4 ReceivedBroadcasts 35
scalar TestScenario.exploited[43].nic.mac1609_4 SentPackets 19
scalar TestScenario.exploited[43].nic.mac1609_4 SentAcknowledgements 0
scalar TestScenario.exploited[43].nic.mac1609_4 SNIRLostPackets 128
scalar TestScenario.exploited[43].nic.mac1609_4 RXTXLostPackets 39
scalar TestScenario.exploited[43].nic.mac1609_4 TotalLostPackets 167
scalar TestScenario.exploited[43].nic.mac1609_4 DroppedPacketsInMac 0
scalar TestScenario.exploited[43].nic.mac1609_4 TooLittleTime 0
scalar TestScenario.exploited[43].nic.mac1609_4 TimesIntoBackoff 19
scalar TestScenario.exploited[43].nic.mac1609_4 SlotsBackoff 26
scalar TestScenario.exploited[43].nic.mac1609_4 NumInternalContention 0
scalar TestScenario.exploited[43].nic.mac1609_4 totalBusyTime 0.021827123064
scalar TestScenario.exploited[43].veinsmobility startTime 44
scalar TestScenario.exploited[43].veinsmobility totalTime 35
scalar TestScenario.exploited[43].veinsmobility stopTime 79.000238287678
scalar TestScenario.exploited[43].veinsmobility minSpeed 3.5687187515758
scalar TestScenario.exploited[43].veinsmobility maxSpeed 13.885523801558
scalar TestScenario.exploited[43].veinsmobility totalDistance 383.40897641544
scalar TestScenario.exploited[43].veinsmobility totalCO2Emission 106.886623961
scalar TestScenario.uninfected[44].appl generatedWSMs 14
scalar TestScenario.uninfected[44].appl receivedWSMs 24
scalar TestScenario.uninfected[44].appl generatedBSMs 0
scalar TestScenario.uninfected[44].appl receivedBSMs 0
scalar TestScenario.uninfected[44].appl generatedWSAs 0
scalar TestScenario.uninfected[44].appl receivedWSAs 0
scalar TestScenario.uninfected[44].nic.phy80211p busyTime 0.00093481697778332
scalar TestScenario.uninfected[44].nic.mac1609_4 ReceivedUnicastPackets 0
scalar TestScenario.uninfected[44].nic.mac1609_4 ReceivedBroadcasts 24
scalar TestScenario.uninfected[44].nic.mac1609_4 SentPackets 14
scalar TestScenario.uninfected[44].nic.mac1609_4 SentAcknowledgements 0
scalar TestScenario.uninfected[44].nic.mac1609_4 SNIRLostPackets 110
scalar TestScenario.uninfected[44].nic.mac1609_4 RXTXLostPackets 30
scalar TestScenario.uninfected[44].nic.mac1609_4 TotalLostPackets 140
scalar TestScenario.uninfected[44].nic.mac1609_4 DroppedPacketsInMac 0
scalar TestScenario.uninfected[44].nic.mac1609_4 TooLittleTime 0
scalar TestScenario.uninfected[44].nic.mac1609_4 TimesIntoBackoff 14
scalar TestScenario.uninfected[44].nic.mac1609_4 SlotsBackoff 20
scalar TestScenario.uninfected[44].nic.mac1609_4 NumInternalContention 0
[...]
scalar TestScenario.uninfected[68].veinsmobility maxSpeed 13.889944936424
scalar TestScenario.uninfected[68].veinsmobility totalDistance 104.25241963571
scalar TestScenario.uninfected[68].veinsmobility totalCO2Emission 39.756199814889
scalar TestScenario.exploited[69].appl generatedWSMs 2
scalar TestScenario.exploited[69].appl receivedWSMs 14
scalar TestScenario.exploited[69].appl generatedBSMs 0
scalar TestScenario.exploited[69].appl receivedBSMs 0
scalar TestScenario.exploited[69].appl generatedWSAs 0
scalar TestScenario.exploited[69].appl receivedWSAs 0
scalar TestScenario.exploited[69].nic.phy80211p busyTime 0.0035572391504159
scalar TestScenario.exploited[69].nic.mac1609_4 ReceivedUnicastPackets 0
scalar TestScenario.exploited[69].nic.mac1609_4 ReceivedBroadcasts 14
scalar TestScenario.exploited[69].nic.mac1609_4 SentPackets 2
scalar TestScenario.exploited[69].nic.mac1609_4 SentAcknowledgements 0
scalar TestScenario.exploited[69].nic.mac1609_4 SNIRLostPackets 120
scalar TestScenario.exploited[69].nic.mac1609_4 RXTXLostPackets 11
scalar TestScenario.exploited[69].nic.mac1609_4 TotalLostPackets 131
scalar TestScenario.exploited[69].nic.mac1609_4 DroppedPacketsInMac 0
scalar TestScenario.exploited[69].nic.mac1609_4 TooLittleTime 0
scalar TestScenario.exploited[69].nic.mac1609_4 TimesIntoBackoff 2
scalar TestScenario.exploited[69].nic.mac1609_4 SlotsBackoff 5
scalar TestScenario.exploited[69].nic.mac1609_4 NumInternalContention 0
scalar TestScenario.exploited[69].nic.mac1609_4 totalBusyTime 0.008122
scalar TestScenario.exploited[69].veinsmobility startTime 70
scalar TestScenario.exploited[69].veinsmobility totalTime 9
scalar TestScenario.exploited[69].veinsmobility stopTime 79.000238287678
scalar TestScenario.exploited[69].veinsmobility minSpeed 3.9172325728965
scalar TestScenario.exploited[69].veinsmobility maxSpeed 13.843722395389
scalar TestScenario.exploited[69].veinsmobility totalDistance 90.038498322137
scalar TestScenario.exploited[69].veinsmobility totalCO2Emission 38.033483489712
scalar TestScenario.uninfected[7].appl generatedWSMs 37
scalar TestScenario.uninfected[7].appl receivedWSMs 81
scalar TestScenario.uninfected[7].appl generatedBSMs 0
scalar TestScenario.uninfected[7].appl receivedBSMs 0
scalar TestScenario.uninfected[7].appl generatedWSAs 0
scalar TestScenario.uninfected[7].appl receivedWSAs 0
scalar TestScenario.uninfected[7].nic.phy80211p busyTime 0.0013201082455559
scalar TestScenario.uninfected[7].nic.mac1609_4 ReceivedUnicastPackets 0
scalar TestScenario.uninfected[7].nic.mac1609_4 ReceivedBroadcasts 81
scalar TestScenario.uninfected[7].nic.mac1609_4 SentPackets 37
scalar TestScenario.uninfected[7].nic.mac1609_4 SentAcknowledgements 0
scalar TestScenario.uninfected[7].nic.mac1609_4 SNIRLostPackets 319
scalar TestScenario.uninfected[7].nic.mac1609_4 RXTXLostPackets 168
scalar TestScenario.uninfected[7].nic.mac1609_4 TotalLostPackets 487
scalar TestScenario.uninfected[7].nic.mac1609_4 DroppedPacketsInMac 0
scalar TestScenario.uninfected[7].nic.mac1609_4 TooLittleTime 0
scalar TestScenario.uninfected[7].nic.mac1609_4 TimesIntoBackoff 37
scalar TestScenario.uninfected[7].nic.mac1609_4 SlotsBackoff 57
scalar TestScenario.uninfected[7].nic.mac1609_4 NumInternalContention 0
scalar TestScenario.uninfected[7].nic.mac1609_4 totalBusyTime 0.044581702574
scalar TestScenario.uninfected[7].veinsmobility startTime 8
scalar TestScenario.uninfected[7].veinsmobility totalTime 71
scalar TestScenario.uninfected[7].veinsmobility stopTime 79.000238287678
scalar TestScenario.uninfected[7].veinsmobility minSpeed 3.5200028661359
scalar TestScenario.uninfected[7].veinsmobility maxSpeed 13.889744921199
scalar TestScenario.uninfected[7].veinsmobility totalDistance 763.15933132991
scalar TestScenario.uninfected[7].veinsmobility totalCO2Emission 206.5446206816
scalar TestScenario.uninfected[71].appl generatedWSMs 4
scalar TestScenario.uninfected[71].appl receivedWSMs 9
scalar TestScenario.uninfected[71].appl generatedBSMs 0
scalar TestScenario.uninfected[71].appl receivedBSMs 0
scalar TestScenario.uninfected[71].appl generatedWSAs 0
scalar TestScenario.uninfected[71].appl receivedWSAs 0
scalar TestScenario.uninfected[71].nic.phy80211p busyTime 0.0032092058809637
scalar TestScenario.uninfected[71].nic.mac1609_4 ReceivedUnicastPackets 0
scalar TestScenario.uninfected[71].nic.mac1609_4 ReceivedBroadcasts 9
scalar TestScenario.uninfected[71].nic.mac1609_4 SentPackets 4
scalar TestScenario.uninfected[71].nic.mac1609_4 SentAcknowledgements 0
scalar TestScenario.uninfected[71].nic.mac1609_4 SNIRLostPackets 69
scalar TestScenario.uninfected[71].nic.mac1609_4 RXTXLostPackets 18
scalar TestScenario.uninfected[71].nic.mac1609_4 TotalLostPackets 87
scalar TestScenario.uninfected[71].nic.mac1609_4 DroppedPacketsInMac 0
scalar TestScenario.uninfected[71].nic.mac1609_4 TooLittleTime 0
scalar TestScenario.uninfected[71].nic.mac1609_4 TimesIntoBackoff 4
scalar TestScenario.uninfected[71].nic.mac1609_4 SlotsBackoff 6
scalar TestScenario.uninfected[71].nic.mac1609_4 NumInternalContention 0
scalar TestScenario.uninfected[71].nic.mac1609_4 totalBusyTime 0.006036
scalar TestScenario.uninfected[71].veinsmobility startTime 73
scalar TestScenario.uninfected[71].veinsmobility totalTime 6
scalar TestScenario.uninfected[71].veinsmobility stopTime 79.000238287678
scalar TestScenario.uninfected[71].veinsmobility minSpeed 2.9785839998789
scalar TestScenario.uninfected[71].veinsmobility maxSpeed 12.845439519793
scalar TestScenario.uninfected[71].veinsmobility totalDistance 42.182243035034
scalar TestScenario.uninfected[71].veinsmobility totalCO2Emission 29.285294676673
scalar TestScenario.uninfected[70].appl generatedWSMs 2
scalar TestScenario.uninfected[70].appl receivedWSMs 5
scalar TestScenario.uninfected[70].appl generatedBSMs 0
scalar TestScenario.uninfected[70].appl receivedBSMs 0
scalar TestScenario.uninfected[70].appl generatedWSAs 0
scalar TestScenario.uninfected[70].appl receivedWSAs 0
scalar TestScenario.uninfected[70].nic.phy80211p busyTime 0.0053358183628903
scalar TestScenario.uninfected[70].nic.mac1609_4 ReceivedUnicastPackets 0
scalar TestScenario.uninfected[70].nic.mac1609_4 ReceivedBroadcasts 5
scalar TestScenario.uninfected[70].nic.mac1609_4 SentPackets 2
scalar TestScenario.uninfected[70].nic.mac1609_4 SentAcknowledgements 0
scalar TestScenario.uninfected[70].nic.mac1609_4 SNIRLostPackets 152
scalar TestScenario.uninfected[70].nic.mac1609_4 RXTXLostPackets 10
scalar TestScenario.uninfected[70].nic.mac1609_4 TotalLostPackets 162
scalar TestScenario.uninfected[70].nic.mac1609_4 DroppedPacketsInMac 0
scalar TestScenario.uninfected[70].nic.mac1609_4 TooLittleTime 0
scalar TestScenario.uninfected[70].nic.mac1609_4 TimesIntoBackoff 2
scalar TestScenario.uninfected[70].nic.mac1609_4 SlotsBackoff 5
scalar TestScenario.uninfected[70].nic.mac1609_4 NumInternalContention 0
scalar TestScenario.uninfected[70].nic.mac1609_4 totalBusyTime 0.006034
scalar TestScenario.uninfected[70].veinsmobility startTime 72
scalar TestScenario.uninfected[70].veinsmobility totalTime 7
scalar TestScenario.uninfected[70].veinsmobility stopTime 79.000238287678
scalar TestScenario.uninfected[70].veinsmobility minSpeed 3.861036727981
scalar TestScenario.uninfected[70].veinsmobility maxSpeed 13.859153961036
scalar TestScenario.uninfected[70].veinsmobility totalDistance 61.836604308227
scalar TestScenario.uninfected[70].veinsmobility totalCO2Emission 33.955093115325
scalar TestScenario.uninfected[72].appl generatedWSMs 5
scalar TestScenario.uninfected[72].appl receivedWSMs 8
scalar TestScenario.uninfected[72].appl generatedBSMs 0
scalar TestScenario.uninfected[72].appl receivedBSMs 0
scalar TestScenario.uninfected[72].appl generatedWSAs 0
scalar TestScenario.uninfected[72].appl receivedWSAs 0
scalar TestScenario.uninfected[72].nic.phy80211p busyTime 0.0036345223230192
scalar TestScenario.uninfected[72].nic.mac1609_4 ReceivedUnicastPackets 0
scalar TestScenario.uninfected[72].nic.mac1609_4 ReceivedBroadcasts 8
scalar TestScenario.uninfected[72].nic.mac1609_4 SentPackets 5
scalar TestScenario.uninfected[72].nic.mac1609_4 SentAcknowledgements 0
scalar TestScenario.uninfected[72].nic.mac1609_4 SNIRLostPackets 83
scalar TestScenario.uninfected[72].nic.mac1609_4 RXTXLostPackets 49
scalar TestScenario.uninfected[72].nic.mac1609_4 TotalLostPackets 132
scalar TestScenario.uninfected[72].nic.mac1609_4 DroppedPacketsInMac 0
scalar TestScenario.uninfected[72].nic.mac1609_4 TooLittleTime 0
scalar TestScenario.uninfected[72].nic.mac1609_4 TimesIntoBackoff 5
scalar TestScenario.uninfected[72].nic.mac1609_4 SlotsBackoff 4
scalar TestScenario.uninfected[72].nic.mac1609_4 NumInternalContention 0
scalar TestScenario.uninfected[72].nic.mac1609_4 totalBusyTime 0.005573
scalar TestScenario.uninfected[72].veinsmobility startTime 73
scalar TestScenario.uninfected[72].veinsmobility totalTime 6
scalar TestScenario.uninfected[72].veinsmobility stopTime 79.000238287678
scalar TestScenario.uninfected[72].veinsmobility minSpeed 4.1655521295262
scalar TestScenario.uninfected[72].veinsmobility maxSpeed 13.86538908401
scalar TestScenario.uninfected[72].veinsmobility totalDistance 48.759576342614
scalar TestScenario.uninfected[72].veinsmobility totalCO2Emission 31.870811584107
scalar TestScenario.uninfected[73].appl generatedWSMs 1
scalar TestScenario.uninfected[73].appl receivedWSMs 3
scalar TestScenario.uninfected[73].appl generatedBSMs 0
scalar TestScenario.uninfected[73].appl receivedBSMs 0
scalar TestScenario.uninfected[73].appl generatedWSAs 0
scalar TestScenario.uninfected[73].appl receivedWSAs 0
scalar TestScenario.uninfected[73].nic.phy80211p busyTime 0.0016239226078505
scalar TestScenario.uninfected[73].nic.mac1609_4 ReceivedUnicastPackets 0
scalar TestScenario.uninfected[73].nic.mac1609_4 ReceivedBroadcasts 3
scalar TestScenario.uninfected[73].nic.mac1609_4 SentPackets 1
scalar TestScenario.uninfected[73].nic.mac1609_4 SentAcknowledgements 0
scalar TestScenario.uninfected[73].nic.mac1609_4 SNIRLostPackets 31
scalar TestScenario.uninfected[73].nic.mac1609_4 RXTXLostPackets 0
scalar TestScenario.uninfected[73].nic.mac1609_4 TotalLostPackets 31
scalar TestScenario.uninfected[73].nic.mac1609_4 DroppedPacketsInMac 0
scalar TestScenario.uninfected[73].nic.mac1609_4 TooLittleTime 0
scalar TestScenario.uninfected[73].nic.mac1609_4 TimesIntoBackoff 1
scalar TestScenario.uninfected[73].nic.mac1609_4 SlotsBackoff 2
scalar TestScenario.uninfected[73].nic.mac1609_4 NumInternalContention 0
scalar TestScenario.uninfected[73].nic.mac1609_4 totalBusyTime 0.003249
scalar TestScenario.uninfected[73].veinsmobility startTime 74
scalar TestScenario.uninfected[73].veinsmobility totalTime 5
scalar TestScenario.uninfected[73].veinsmobility stopTime 79.000238287678
scalar TestScenario.uninfected[73].veinsmobility minSpeed 4.1235921329075
scalar TestScenario.uninfected[73].veinsmobility maxSpeed 12.140715065708
scalar TestScenario.uninfected[73].veinsmobility totalDistance 36.623834131255
scalar TestScenario.uninfected[73].veinsmobility totalCO2Emission 24.223667595748
scalar TestScenario.uninfected[74].appl generatedWSMs 1
scalar TestScenario.uninfected[74].appl receivedWSMs 4
scalar TestScenario.uninfected[74].appl generatedBSMs 0
scalar TestScenario.uninfected[74].appl receivedBSMs 0
scalar TestScenario.uninfected[74].appl generatedWSAs 0
scalar TestScenario.uninfected[74].appl receivedWSAs 0
scalar TestScenario.uninfected[74].nic.phy80211p busyTime 0.002261865256345
scalar TestScenario.uninfected[74].nic.mac1609_4 ReceivedUnicastPackets 0
scalar TestScenario.uninfected[74].nic.mac1609_4 ReceivedBroadcasts 4
scalar TestScenario.uninfected[74].nic.mac1609_4 SentPackets 1
scalar TestScenario.uninfected[74].nic.mac1609_4 SentAcknowledgements 0
scalar TestScenario.uninfected[74].nic.mac1609_4 SNIRLostPackets 34
scalar TestScenario.uninfected[74].nic.mac1609_4 RXTXLostPackets 0
scalar TestScenario.uninfected[74].nic.mac1609_4 TotalLostPackets 34
scalar TestScenario.uninfected[74].nic.mac1609_4 DroppedPacketsInMac 0
scalar TestScenario.uninfected[74].nic.mac1609_4 TooLittleTime 0
scalar TestScenario.uninfected[74].nic.mac1609_4 TimesIntoBackoff 1
scalar TestScenario.uninfected[74].nic.mac1609_4 SlotsBackoff 2
scalar TestScenario.uninfected[74].nic.mac1609_4 NumInternalContention 0
scalar TestScenario.uninfected[74].nic.mac1609_4 totalBusyTime 0.003017
scalar TestScenario.uninfected[74].veinsmobility startTime 75
scalar TestScenario.uninfected[74].veinsmobility totalTime 4
scalar TestScenario.uninfected[74].veinsmobility stopTime 79.000238287678
scalar TestScenario.uninfected[74].veinsmobility minSpeed 4.1057321482126
scalar TestScenario.uninfected[74].veinsmobility maxSpeed 9.9885059660135
scalar TestScenario.uninfected[74].veinsmobility totalDistance 24.611775629349
scalar TestScenario.uninfected[74].veinsmobility totalCO2Emission 16.032333547013
scalar TestScenario.uninfected[75].appl generatedWSMs 0
scalar TestScenario.uninfected[75].appl receivedWSMs 0
scalar TestScenario.uninfected[75].appl generatedBSMs 0
scalar TestScenario.uninfected[75].appl receivedBSMs 0
scalar TestScenario.uninfected[75].appl generatedWSAs 0
scalar TestScenario.uninfected[75].appl receivedWSAs 0
scalar TestScenario.uninfected[75].nic.phy80211p busyTime 0.003247742034364
scalar TestScenario.uninfected[75].nic.mac1609_4 ReceivedUnicastPackets 0
scalar TestScenario.uninfected[75].nic.mac1609_4 ReceivedBroadcasts 0
scalar TestScenario.uninfected[75].nic.mac1609_4 SentPackets 0
scalar TestScenario.uninfected[75].nic.mac1609_4 SentAcknowledgements 0
scalar TestScenario.uninfected[75].nic.mac1609_4 SNIRLostPackets 39
scalar TestScenario.uninfected[75].nic.mac1609_4 RXTXLostPackets 0
scalar TestScenario.uninfected[75].nic.mac1609_4 TotalLostPackets 39
scalar TestScenario.uninfected[75].nic.mac1609_4 DroppedPacketsInMac 0
scalar TestScenario.uninfected[75].nic.mac1609_4 TooLittleTime 0
scalar TestScenario.uninfected[75].nic.mac1609_4 TimesIntoBackoff 0
scalar TestScenario.uninfected[75].nic.mac1609_4 SlotsBackoff 0
scalar TestScenario.uninfected[75].nic.mac1609_4 NumInternalContention 0
scalar TestScenario.uninfected[75].nic.mac1609_4 totalBusyTime 0.002088
scalar TestScenario.uninfected[75].veinsmobility startTime 76
scalar TestScenario.uninfected[75].veinsmobility totalTime 3
scalar TestScenario.uninfected[75].veinsmobility stopTime 79.000238287678
scalar TestScenario.uninfected[75].veinsmobility minSpeed 3.6976594725211
scalar TestScenario.uninfected[75].veinsmobility maxSpeed 7.6785220706609
scalar TestScenario.uninfected[75].veinsmobility totalDistance 14.529562918795
scalar TestScenario.uninfected[75].veinsmobility totalCO2Emission 9.3361214412915
scalar TestScenario.exploited[76].appl generatedWSMs 0
scalar TestScenario.exploited[76].appl receivedWSMs 1
scalar TestScenario.exploited[76].appl generatedBSMs 0
scalar TestScenario.exploited[76].appl receivedBSMs 0
scalar TestScenario.exploited[76].appl generatedWSAs 0
scalar TestScenario.exploited[76].appl receivedWSAs 0
scalar TestScenario.exploited[76].nic.phy80211p busyTime 0.00069591708576678
scalar TestScenario.exploited[76].nic.mac1609_4 ReceivedUnicastPackets 0
scalar TestScenario.exploited[76].nic.mac1609_4 ReceivedBroadcasts 1
scalar TestScenario.exploited[76].nic.mac1609_4 SentPackets 0
scalar TestScenario.exploited[76].nic.mac1609_4 SentAcknowledgements 0
scalar TestScenario.exploited[76].nic.mac1609_4 SNIRLostPackets 4
scalar TestScenario.exploited[76].nic.mac1609_4 RXTXLostPackets 0
scalar TestScenario.exploited[76].nic.mac1609_4 TotalLostPackets 4
scalar TestScenario.exploited[76].nic.mac1609_4 DroppedPacketsInMac 0
scalar TestScenario.exploited[76].nic.mac1609_4 TooLittleTime 0
scalar TestScenario.exploited[76].nic.mac1609_4 TimesIntoBackoff 0
scalar TestScenario.exploited[76].nic.mac1609_4 SlotsBackoff 0
scalar TestScenario.exploited[76].nic.mac1609_4 NumInternalContention 0
scalar TestScenario.exploited[76].nic.mac1609_4 totalBusyTime 0.000696
scalar TestScenario.exploited[76].veinsmobility startTime 77
scalar TestScenario.exploited[76].veinsmobility totalTime 2
scalar TestScenario.exploited[76].veinsmobility stopTime 79.000238287678
scalar TestScenario.exploited[76].veinsmobility minSpeed 3.954930337821
scalar TestScenario.exploited[76].veinsmobility maxSpeed 5.8500556864797
scalar TestScenario.exploited[76].veinsmobility totalDistance 8.0721452700931
scalar TestScenario.exploited[76].veinsmobility totalCO2Emission 4.0825695225859
scalar TestScenario.uninfected[77].appl generatedWSMs 0
scalar TestScenario.uninfected[77].appl receivedWSMs 0
scalar TestScenario.uninfected[77].appl generatedBSMs 0
scalar TestScenario.uninfected[77].appl receivedBSMs 0
scalar TestScenario.uninfected[77].appl generatedWSAs 0
scalar TestScenario.uninfected[77].appl receivedWSAs 0
scalar TestScenario.uninfected[77].nic.phy80211p busyTime 0.004870839339004
scalar TestScenario.uninfected[77].nic.mac1609_4 ReceivedUnicastPackets 0
scalar TestScenario.uninfected[77].nic.mac1609_4 ReceivedBroadcasts 0
scalar TestScenario.uninfected[77].nic.mac1609_4 SentPackets 0
scalar TestScenario.uninfected[77].nic.mac1609_4 SentAcknowledgements 0
scalar TestScenario.uninfected[77].nic.mac1609_4 SNIRLostPackets 16
scalar TestScenario.uninfected[77].nic.mac1609_4 RXTXLostPackets 0
scalar TestScenario.uninfected[77].nic.mac1609_4 TotalLostPackets 16
scalar TestScenario.uninfected[77].nic.mac1609_4 DroppedPacketsInMac 0
scalar TestScenario.uninfected[77].nic.mac1609_4 TooLittleTime 0
scalar TestScenario.uninfected[77].nic.mac1609_4 TimesIntoBackoff 0
scalar TestScenario.uninfected[77].nic.mac1609_4 SlotsBackoff 0
scalar TestScenario.uninfected[77].nic.mac1609_4 NumInternalContention 0
scalar TestScenario.uninfected[77].nic.mac1609_4 totalBusyTime 0.000464
scalar TestScenario.uninfected[77].veinsmobility startTime 78
scalar TestScenario.uninfected[77].veinsmobility totalTime 1
scalar TestScenario.uninfected[77].veinsmobility stopTime 79.000238287678
scalar TestScenario.uninfected[77].veinsmobility minSpeed 4.1589468862189
scalar TestScenario.uninfected[77].veinsmobility maxSpeed 4.1589468862189
scalar TestScenario.uninfected[77].veinsmobility totalDistance 3.2454125947725
scalar TestScenario.uninfected[77].veinsmobility totalCO2Emission 0
scalar TestScenario.uninfected[78].appl generatedWSMs 0
scalar TestScenario.uninfected[78].appl receivedWSMs 0
scalar TestScenario.uninfected[78].appl generatedBSMs 0
scalar TestScenario.uninfected[78].appl receivedBSMs 0
scalar TestScenario.uninfected[78].appl generatedWSAs 0
scalar TestScenario.uninfected[78].appl receivedWSAs 0
scalar TestScenario.uninfected[78].nic.phy80211p busyTime 1.9472261591302
scalar TestScenario.uninfected[78].nic.mac1609_4 ReceivedUnicastPackets 0
scalar TestScenario.uninfected[78].nic.mac1609_4 ReceivedBroadcasts 0
scalar TestScenario.uninfected[78].nic.mac1609_4 SentPackets 0
scalar TestScenario.uninfected[78].nic.mac1609_4 SentAcknowledgements 0
scalar TestScenario.uninfected[78].nic.mac1609_4 SNIRLostPackets 0
scalar TestScenario.uninfected[78].nic.mac1609_4 RXTXLostPackets 0
scalar TestScenario.uninfected[78].nic.mac1609_4 TotalLostPackets 0
scalar TestScenario.uninfected[78].nic.mac1609_4 DroppedPacketsInMac 0
scalar TestScenario.uninfected[78].nic.mac1609_4 TooLittleTime 0
scalar TestScenario.uninfected[78].nic.mac1609_4 TimesIntoBackoff 0
scalar TestScenario.uninfected[78].nic.mac1609_4 SlotsBackoff 0
scalar TestScenario.uninfected[78].nic.mac1609_4 NumInternalContention 0
scalar TestScenario.uninfected[78].nic.mac1609_4 totalBusyTime 0
scalar TestScenario.uninfected[78].veinsmobility startTime 79
scalar TestScenario.uninfected[78].veinsmobility totalTime 0
scalar TestScenario.uninfected[78].veinsmobility stopTime 79.000238287678
scalar TestScenario.uninfected[78].veinsmobility totalDistance 0
scalar TestScenario.uninfected[78].veinsmobility totalCO2Emission 0
scalar TestScenario.manager roiArea 0

