file 397832 1595452849                                          
version 2
run Default-0-20200722-14:19:35-268
attr configname Default
attr datetime 20200722-14:19:35
attr experiment Default
attr inifile omnetpp.ini
attr iterationvars ""
attr iterationvarsf ""
attr measurement ""
attr network sim1.src.TestScenario
attr processid 268
attr repetition 0
attr replication #0
attr resultdir results
attr runnumber 0
attr seedset 0
param *.playgroundSizeX 1000m
param *.playgroundSizeY 1000m
param *.playgroundSizeZ 50m
param *.manager.moduleType "\"exploited=org.car2x.veins.nodes.Car *=org.car2x.veins.nodes.Car\""
param *.manager.moduleName "\"exploited=exploited *=uninfected\""
param *.manager.updateInterval 1s
param *.manager.host "\"localhost\""
param *.manager.port 9999
param *.manager.autoShutdown true
param *.manager.launchConfig "xmldoc(\"demo.launchd.xml\")"
param *.connectionManager.sendDirect true
param *.connectionManager.maxInterfDist 300m
param *.connectionManager.drawMaxIntfDist false
param *.**.nic.mac1609_4.useServiceChannel false
param *.**.nic.mac1609_4.txPower 20mW
param *.**.nic.mac1609_4.bitrate 6Mbps
param *.**.nic.phy80211p.sensitivity -89dBm
param *.**.nic.phy80211p.useThermalNoise true
param *.**.nic.phy80211p.thermalNoise -110dBm
param *.**.nic.phy80211p.decider "xmldoc(\"config.xml\")"
param *.**.nic.phy80211p.analogueModels "xmldoc(\"config.xml\")"
param *.**.nic.phy80211p.usePropagationDelay true
param *.**.nic.phy80211p.antenna "xmldoc(\"antenna.xml\", \"/root/Antenna[@id='monopole']\")"
param *.uninfected[*].applType "\"sim1.src.Uninfected\""
param *.uninfected[*].appl.dataPriority 2
param *.uninfected[*].appl.headerLength "80 bit"
param *.uninfected[*].appl.sendBeacons false
param *.uninfected[*].appl.dataOnSch false
param *.uninfected[*].appl.beaconInterval 1s
param *.uninfected[*].veinsmobilityType.debug true
param *.uninfected[*].veinsmobility.x 0
param *.uninfected[*].veinsmobility.y 0
param *.uninfected[*].veinsmobility.z 1.895
param *.uninfected[*0].veinsmobility.accidentCount 1
param *.uninfected[*0].veinsmobility.accidentStart 75s
param *.uninfected[*0].veinsmobility.accidentDuration 50s
param *.exploited[*].applType "\"sim1.src.Exploited\""
param *.exploited[*].appl.dataPriority 2
param *.exploited[*].appl.headerLength "80 bit"
param *.exploited[*].appl.sendBeacons false
param *.exploited[*].appl.dataOnSch false
param *.exploited[*].appl.beaconInterval 1s
param *.exploited[*].veinsmobilityType.debug true
param *.exploited[*].veinsmobility.x 0
param *.exploited[*].veinsmobility.y 0
param *.exploited[*].veinsmobility.z 1.895
param *.exploited[*0].veinsmobility.accidentCount 1
param *.exploited[*0].veinsmobility.accidentStart 75s
param *.exploited[*0].veinsmobility.accidentDuration 50s

vector 0 TestScenario.uninfected[0].veinsmobility posx ETV
vector 1 TestScenario.uninfected[0].veinsmobility posy ETV
vector 2 TestScenario.uninfected[1].veinsmobility posx ETV
vector 3 TestScenario.uninfected[1].veinsmobility posy ETV
vector 4 TestScenario.uninfected[0].veinsmobility speed ETV
vector 5 TestScenario.uninfected[2].veinsmobility posx ETV
vector 6 TestScenario.uninfected[2].veinsmobility posy ETV
vector 7 TestScenario.uninfected[0].veinsmobility acceleration ETV
vector 8 TestScenario.uninfected[0].veinsmobility co2emission ETV
vector 9 TestScenario.uninfected[1].veinsmobility speed ETV
vector 10 TestScenario.uninfected[3].veinsmobility posx ETV
vector 11 TestScenario.uninfected[3].veinsmobility posy ETV
vector 12 TestScenario.uninfected[1].veinsmobility acceleration ETV
vector 13 TestScenario.uninfected[1].veinsmobility co2emission ETV
vector 14 TestScenario.uninfected[2].veinsmobility speed ETV
vector 15 TestScenario.uninfected[4].veinsmobility posx ETV
vector 16 TestScenario.uninfected[4].veinsmobility posy ETV
vector 17 TestScenario.uninfected[2].veinsmobility acceleration ETV
vector 18 TestScenario.uninfected[2].veinsmobility co2emission ETV
vector 19 TestScenario.uninfected[3].veinsmobility speed ETV
vector 20 TestScenario.uninfected[5].veinsmobility posx ETV
vector 21 TestScenario.uninfected[5].veinsmobility posy ETV
vector 22 TestScenario.uninfected[3].veinsmobility acceleration ETV
vector 23 TestScenario.uninfected[3].veinsmobility co2emission ETV
vector 24 TestScenario.uninfected[4].veinsmobility speed ETV
vector 25 TestScenario.uninfected[6].veinsmobility posx ETV
vector 26 TestScenario.uninfected[6].veinsmobility posy ETV
vector 27 TestScenario.uninfected[4].veinsmobility acceleration ETV
vector 28 TestScenario.uninfected[4].veinsmobility co2emission ETV
vector 29 TestScenario.uninfected[5].veinsmobility speed ETV
vector 30 TestScenario.uninfected[7].veinsmobility posx ETV
vector 31 TestScenario.uninfected[7].veinsmobility posy ETV
vector 32 TestScenario.uninfected[5].veinsmobility acceleration ETV
vector 33 TestScenario.uninfected[5].veinsmobility co2emission ETV
vector 34 TestScenario.uninfected[6].veinsmobility speed ETV
vector 35 TestScenario.uninfected[8].veinsmobility posx ETV
vector 36 TestScenario.uninfected[8].veinsmobility posy ETV
vector 37 TestScenario.uninfected[6].veinsmobility acceleration ETV
vector 38 TestScenario.uninfected[6].veinsmobility co2emission ETV
vector 39 TestScenario.uninfected[7].veinsmobility speed ETV
vector 40 TestScenario.uninfected[9].veinsmobility posx ETV
vector 41 TestScenario.uninfected[9].veinsmobility posy ETV
vector 42 TestScenario.uninfected[7].veinsmobility acceleration ETV
vector 43 TestScenario.uninfected[7].veinsmobility co2emission ETV
vector 44 TestScenario.uninfected[8].veinsmobility speed ETV
vector 45 TestScenario.uninfected[10].veinsmobility posx ETV
vector 46 TestScenario.uninfected[10].veinsmobility posy ETV
vector 47 TestScenario.uninfected[8].veinsmobility acceleration ETV
vector 48 TestScenario.uninfected[8].veinsmobility co2emission ETV
vector 49 TestScenario.uninfected[9].veinsmobility speed ETV
vector 50 TestScenario.uninfected[11].veinsmobility posx ETV
vector 51 TestScenario.uninfected[11].veinsmobility posy ETV
vector 52 TestScenario.uninfected[9].veinsmobility acceleration ETV
vector 53 TestScenario.uninfected[9].veinsmobility co2emission ETV
vector 54 TestScenario.uninfected[10].veinsmobility speed ETV
vector 55 TestScenario.uninfected[12].veinsmobility posx ETV
vector 56 TestScenario.uninfected[12].veinsmobility posy ETV
vector 57 TestScenario.uninfected[10].veinsmobility acceleration ETV
vector 58 TestScenario.uninfected[10].veinsmobility co2emission ETV
vector 59 TestScenario.uninfected[11].veinsmobility speed ETV
vector 60 TestScenario.uninfected[13].veinsmobility posx ETV
vector 61 TestScenario.uninfected[13].veinsmobility posy ETV
vector 62 TestScenario.uninfected[11].veinsmobility acceleration ETV
vector 63 TestScenario.uninfected[11].veinsmobility co2emission ETV
vector 64 TestScenario.uninfected[12].veinsmobility speed ETV
vector 65 TestScenario.uninfected[14].veinsmobility posx ETV
vector 66 TestScenario.uninfected[14].veinsmobility posy ETV
vector 67 TestScenario.uninfected[12].veinsmobility acceleration ETV
vector 68 TestScenario.uninfected[12].veinsmobility co2emission ETV
vector 69 TestScenario.uninfected[13].veinsmobility speed ETV
vector 70 TestScenario.uninfected[15].veinsmobility posx ETV
vector 71 TestScenario.uninfected[15].veinsmobility posy ETV
vector 72 TestScenario.uninfected[13].veinsmobility acceleration ETV
vector 73 TestScenario.uninfected[13].veinsmobility co2emission ETV
vector 74 TestScenario.uninfected[14].veinsmobility speed ETV
8	7581 337 4 37 3 16 14 1.8140458596149 8.4055474696849 50.474118156533 257.58268107375
7	7918 360 4 37 3 16 14 -0.060687651869376 2.1980462150532 10.11468484014 20.304906385676
4	8278 355 3 37 2 16 15 3.722822103166 13.864000451695 176.80071137739 2249.2553226589
1	8633 207 2 37 1 16 16 26.6 26.6 425.6 11320.96
0	8840 381 2 37 1 16 16 238.33130028169 396.09961021668 4818.5078540012 1495923.4119671
vector 75 TestScenario.uninfected[16].veinsmobility posx ETV
vector 76 TestScenario.uninfected[16].veinsmobility posy ETV
vector 77 TestScenario.uninfected[14].veinsmobility acceleration ETV
vector 78 TestScenario.uninfected[14].veinsmobility co2emission ETV
vector 79 TestScenario.uninfected[15].veinsmobility speed ETV
vector 80 TestScenario.exploited[17].veinsmobility posx ETV
vector 81 TestScenario.exploited[17].veinsmobility posy ETV
vector 82 TestScenario.uninfected[15].veinsmobility acceleration ETV
vector 83 TestScenario.uninfected[15].veinsmobility co2emission ETV
vector 84 TestScenario.uninfected[16].veinsmobility speed ETV
18	9871 356 6 173 5 18 14 1.7179053222839 8.0164398552752 50.208377241879 243.72827045511
17	10227 375 6 173 5 18 14 -0.090231728134675 2.1563206688361 9.8932096750238 18.685087801256
14	10602 380 5 173 4 18 15 3.9817542820289 13.884849982031 177.77008819269 2261.6217958476
6	10982 228 4 173 3 18 16 826.6 826.6 13225.6 10932280.96
5	11210 386 4 173 3 18 16 438.34775942317 596.79834308495 8027.5880151124 4072715.9594246
vector 85 TestScenario.uninfected[18].veinsmobility posx ETV
vector 86 TestScenario.uninfected[18].veinsmobility posy ETV
vector 87 TestScenario.uninfected[16].veinsmobility acceleration ETV
vector 88 TestScenario.uninfected[16].veinsmobility co2emission ETV
vector 89 TestScenario.exploited[17].veinsmobility speed ETV
vector 90 TestScenario.uninfected[19].veinsmobility posx ETV
vector 91 TestScenario.uninfected[19].veinsmobility posy ETV
vector 92 TestScenario.exploited[17].veinsmobility acceleration ETV
vector 93 TestScenario.exploited[17].veinsmobility co2emission ETV
vector 94 TestScenario.uninfected[18].veinsmobility speed ETV
vector 95 TestScenario.uninfected[20].veinsmobility posx ETV
vector 96 TestScenario.uninfected[20].veinsmobility posy ETV
vector 97 TestScenario.uninfected[18].veinsmobility acceleration ETV
vector 98 TestScenario.uninfected[18].veinsmobility co2emission ETV
vector 99 TestScenario.uninfected[19].veinsmobility speed ETV
vector 100 TestScenario.uninfected[21].veinsmobility posx ETV
vector 101 TestScenario.uninfected[21].veinsmobility posy ETV
vector 102 TestScenario.uninfected[19].veinsmobility acceleration ETV
vector 103 TestScenario.uninfected[19].veinsmobility co2emission ETV
vector 104 TestScenario.uninfected[20].veinsmobility speed ETV
vector 105 TestScenario.uninfected[22].veinsmobility posx ETV
vector 106 TestScenario.uninfected[22].veinsmobility posy ETV
vector 107 TestScenario.uninfected[20].veinsmobility acceleration ETV
vector 108 TestScenario.uninfected[20].veinsmobility co2emission ETV
vector 109 TestScenario.uninfected[21].veinsmobility speed ETV
vector 110 TestScenario.uninfected[23].veinsmobility posx ETV
vector 111 TestScenario.uninfected[23].veinsmobility posy ETV
vector 112 TestScenario.uninfected[21].veinsmobility acceleration ETV
vector 113 TestScenario.uninfected[21].veinsmobility co2emission ETV
vector 114 TestScenario.uninfected[22].veinsmobility speed ETV
vector 115 TestScenario.uninfected[24].veinsmobility posx ETV
vector 116 TestScenario.uninfected[24].veinsmobility posy ETV
vector 117 TestScenario.uninfected[22].veinsmobility acceleration ETV
vector 118 TestScenario.uninfected[22].veinsmobility co2emission ETV
vector 119 TestScenario.uninfected[23].veinsmobility speed ETV
vector 120 TestScenario.uninfected[25].veinsmobility posx ETV
vector 121 TestScenario.uninfected[25].veinsmobility posy ETV
vector 122 TestScenario.uninfected[23].veinsmobility acceleration ETV
vector 123 TestScenario.uninfected[23].veinsmobility co2emission ETV
vector 124 TestScenario.uninfected[24].veinsmobility speed ETV
vector 125 TestScenario.uninfected[26].veinsmobility posx ETV
vector 126 TestScenario.uninfected[26].veinsmobility posy ETV
vector 127 TestScenario.uninfected[24].veinsmobility acceleration ETV
vector 128 TestScenario.uninfected[24].veinsmobility co2emission ETV
vector 129 TestScenario.uninfected[25].veinsmobility speed ETV
vector 130 TestScenario.uninfected[27].veinsmobility posx ETV
vector 131 TestScenario.uninfected[27].veinsmobility posy ETV
vector 132 TestScenario.uninfected[25].veinsmobility acceleration ETV
vector 133 TestScenario.uninfected[25].veinsmobility co2emission ETV
vector 134 TestScenario.uninfected[26].veinsmobility speed ETV
vector 135 TestScenario.uninfected[28].veinsmobility posx ETV
vector 136 TestScenario.uninfected[28].veinsmobility posy ETV
vector 137 TestScenario.uninfected[26].veinsmobility acceleration ETV
vector 138 TestScenario.uninfected[26].veinsmobility co2emission ETV
vector 139 TestScenario.uninfected[27].veinsmobility speed ETV
vector 140 TestScenario.uninfected[29].veinsmobility posx ETV
vector 141 TestScenario.uninfected[29].veinsmobility posy ETV
vector 142 TestScenario.uninfected[27].veinsmobility acceleration ETV
vector 143 TestScenario.uninfected[27].veinsmobility co2emission ETV
vector 144 TestScenario.uninfected[28].veinsmobility speed ETV
vector 145 TestScenario.uninfected[30].veinsmobility posx ETV
vector 146 TestScenario.uninfected[30].veinsmobility posy ETV
vector 147 TestScenario.uninfected[28].veinsmobility acceleration ETV
vector 148 TestScenario.uninfected[28].veinsmobility co2emission ETV
vector 149 TestScenario.uninfected[29].veinsmobility speed ETV
vector 150 TestScenario.uninfected[31].veinsmobility posx ETV
vector 151 TestScenario.uninfected[31].veinsmobility posy ETV
vector 152 TestScenario.uninfected[29].veinsmobility acceleration ETV
vector 153 TestScenario.uninfected[29].veinsmobility co2emission ETV
vector 154 TestScenario.uninfected[30].veinsmobility speed ETV
vector 155 TestScenario.uninfected[32].veinsmobility posx ETV
vector 156 TestScenario.uninfected[32].veinsmobility posy ETV
vector 157 TestScenario.uninfected[30].veinsmobility acceleration ETV
vector 158 TestScenario.uninfected[30].veinsmobility co2emission ETV
vector 159 TestScenario.uninfected[31].veinsmobility speed ETV
vector 160 TestScenario.uninfected[33].veinsmobility posx ETV
vector 161 TestScenario.uninfected[33].veinsmobility posy ETV
vector 162 TestScenario.uninfected[31].veinsmobility acceleration ETV
vector 163 TestScenario.uninfected[31].veinsmobility co2emission ETV
vector 164 TestScenario.uninfected[32].veinsmobility speed ETV
vector 165 TestScenario.uninfected[34].veinsmobility posx ETV
vector 166 TestScenario.uninfected[34].veinsmobility posy ETV
vector 167 TestScenario.uninfected[32].veinsmobility acceleration ETV
vector 168 TestScenario.uninfected[32].veinsmobility co2emission ETV
vector 169 TestScenario.uninfected[33].veinsmobility speed ETV
vector 170 TestScenario.uninfected[35].veinsmobility posx ETV
vector 171 TestScenario.uninfected[35].veinsmobility posy ETV
vector 172 TestScenario.uninfected[33].veinsmobility acceleration ETV
vector 173 TestScenario.uninfected[33].veinsmobility co2emission ETV
vector 174 TestScenario.uninfected[34].veinsmobility speed ETV
vector 175 TestScenario.uninfected[36].veinsmobility posx ETV
vector 176 TestScenario.uninfected[36].veinsmobility posy ETV
vector 177 TestScenario.uninfected[34].veinsmobility acceleration ETV
vector 178 TestScenario.uninfected[34].veinsmobility co2emission ETV
vector 179 TestScenario.uninfected[35].veinsmobility speed ETV
vector 180 TestScenario.uninfected[37].veinsmobility posx ETV
vector 181 TestScenario.uninfected[37].veinsmobility posy ETV
vector 182 TestScenario.uninfected[35].veinsmobility acceleration ETV
vector 183 TestScenario.uninfected[35].veinsmobility co2emission ETV
vector 184 TestScenario.uninfected[36].veinsmobility speed ETV
vector 185 TestScenario.exploited[38].veinsmobility posx ETV
vector 186 TestScenario.exploited[38].veinsmobility posy ETV
vector 187 TestScenario.uninfected[36].veinsmobility acceleration ETV
vector 188 TestScenario.uninfected[36].veinsmobility co2emission ETV
vector 189 TestScenario.uninfected[37].veinsmobility speed ETV
123	18527 409 4014 14348 26 39 14 1.8230411974377 8.9240235753903 49.762325543066 250.54847305877
122	18936 436 4014 14348 26 39 14 -0.059190001026728 2.0763844653475 9.6661141488262 18.797618349456
119	19372 439 3326 14348 25 39 15 4.1158313905864 13.875373315793 177.70984005264 2257.2574079041
111	19811 309 3114 14348 24 39 16 823.4 823.4 13174.4 10847800.96
110	20120 466 3114 14348 24 39 16 452.93293115548 611.62701314464 8768.6612121258 4850757.0442832
vector 190 TestScenario.uninfected[39].veinsmobility posx ETV
vector 191 TestScenario.uninfected[39].veinsmobility posy ETV
vector 192 TestScenario.uninfected[37].veinsmobility acceleration ETV
vector 193 TestScenario.uninfected[37].veinsmobility co2emission ETV
vector 194 TestScenario.exploited[38].veinsmobility speed ETV
vector 195 TestScenario.uninfected[40].veinsmobility posx ETV
vector 196 TestScenario.uninfected[40].veinsmobility posy ETV
vector 197 TestScenario.exploited[38].veinsmobility acceleration ETV
vector 198 TestScenario.exploited[38].veinsmobility co2emission ETV
vector 199 TestScenario.uninfected[39].veinsmobility speed ETV
vector 200 TestScenario.uninfected[39].veinsmobility acceleration ETV
vector 201 TestScenario.uninfected[39].veinsmobility co2emission ETV
vector 202 TestScenario.uninfected[40].veinsmobility speed ETV
vector 203 TestScenario.exploited[41].veinsmobility posx ETV
vector 204 TestScenario.exploited[41].veinsmobility posy ETV
vector 205 TestScenario.uninfected[42].veinsmobility posx ETV
vector 206 TestScenario.uninfected[42].veinsmobility posy ETV
vector 207 TestScenario.uninfected[40].veinsmobility acceleration ETV
vector 208 TestScenario.uninfected[40].veinsmobility co2emission ETV
vector 209 TestScenario.exploited[43].veinsmobility posx ETV
vector 210 TestScenario.exploited[43].veinsmobility posy ETV
vector 211 TestScenario.exploited[41].veinsmobility speed ETV
vector 212 TestScenario.uninfected[42].veinsmobility speed ETV
vector 213 TestScenario.uninfected[44].veinsmobility posx ETV
vector 214 TestScenario.uninfected[44].veinsmobility posy ETV
vector 215 TestScenario.exploited[41].veinsmobility acceleration ETV
vector 216 TestScenario.exploited[41].veinsmobility co2emission ETV
vector 217 TestScenario.uninfected[42].veinsmobility acceleration ETV
vector 218 TestScenario.uninfected[42].veinsmobility co2emission ETV
vector 219 TestScenario.exploited[43].veinsmobility speed ETV
vector 220 TestScenario.uninfected[45].veinsmobility posx ETV
vector 221 TestScenario.uninfected[45].veinsmobility posy ETV
vector 222 TestScenario.exploited[43].veinsmobility acceleration ETV
vector 223 TestScenario.exploited[43].veinsmobility co2emission ETV
vector 224 TestScenario.uninfected[44].veinsmobility speed ETV
vector 225 TestScenario.uninfected[46].veinsmobility posx ETV
vector 226 TestScenario.uninfected[46].veinsmobility posy ETV
vector 227 TestScenario.uninfected[44].veinsmobility acceleration ETV
vector 228 TestScenario.uninfected[44].veinsmobility co2emission ETV
vector 229 TestScenario.uninfected[45].veinsmobility speed ETV
vector 230 TestScenario.uninfected[47].veinsmobility posx ETV
vector 231 TestScenario.uninfected[47].veinsmobility posy ETV
vector 232 TestScenario.uninfected[45].veinsmobility acceleration ETV
vector 233 TestScenario.uninfected[45].veinsmobility co2emission ETV
vector 234 TestScenario.uninfected[46].veinsmobility speed ETV
vector 235 TestScenario.uninfected[48].veinsmobility posx ETV
vector 236 TestScenario.uninfected[48].veinsmobility posy ETV
vector 237 TestScenario.uninfected[46].veinsmobility acceleration ETV
vector 238 TestScenario.uninfected[46].veinsmobility co2emission ETV
vector 239 TestScenario.uninfected[47].veinsmobility speed ETV
vector 240 TestScenario.uninfected[49].veinsmobility posx ETV
vector 241 TestScenario.uninfected[49].veinsmobility posy ETV
vector 242 TestScenario.uninfected[47].veinsmobility acceleration ETV
vector 243 TestScenario.uninfected[47].veinsmobility co2emission ETV
vector 244 TestScenario.uninfected[48].veinsmobility speed ETV
vector 245 TestScenario.uninfected[48].veinsmobility acceleration ETV
vector 246 TestScenario.uninfected[48].veinsmobility co2emission ETV
vector 247 TestScenario.uninfected[49].veinsmobility speed ETV
23	24419 1237 7 32961 6 51 46 0.973 8.0209828473551 130.71683949643 544.73189987809
22	25656 1359 7 32961 6 51 46 -3.3827432980991 2.144160495922 9.5876286716364 63.284957047053
19	27015 1292 6 32961 5 51 47 4.1837425248161 13.887542860704 575.23055709078 7443.8815015074
11	28307 1185 5 32961 4 51 48 223.4 611.63399887184 17707.029747068 7503582.694471
10	29492 984 5 32961 4 51 48 55.4277867264 226.6 9715.8943186835 2074761.4784489
vector 248 TestScenario.uninfected[50].veinsmobility posx ETV
vector 249 TestScenario.uninfected[50].veinsmobility posy ETV
vector 250 TestScenario.uninfected[49].veinsmobility acceleration ETV
vector 251 TestScenario.uninfected[49].veinsmobility co2emission ETV
83	30743 932 173 34263 18 52 35 0.973 7.7986166994837 109.17991475615 506.20117518356
82	31675 1046 173 34263 18 52 35 -3.3647129501222 2.0915543607646 9.7325882036432 79.022208664159
79	32721 1019 78 34263 17 52 36 0.5315426897043 13.879802511416 375.41696142484 4602.7841332485
71	33740 677 37 34263 16 52 37 423.4 423.4 15665.8 6632899.72
70	34417 1044 37 34263 16 52 37 255.22047523668 611.63982373774 16610.176542384 7854615.3094567
108	35461 862 2368 34263 23 52 30 0.973 8.5852638151056 98.2108391145 478.62782000407
107	36323 940 2368 34263 23 52 30 -4.1076572521566 2.0425128097692 9.5880012045617 60.385341288689
104	37263 915 1772 34263 22 52 31 4.1823363179106 13.886119018339 370.77818449473 4700.741810555
96	38178 784 1181 34263 21 52 32 238.37094110352 423.4 11601.65136605 4366626.8293607
95	38962 744 1181 34263 21 52 32 654.72294397311 823.4 25217.149688066 19962639.239236
vector 252 TestScenario.uninfected[51].veinsmobility posx ETV
vector 253 TestScenario.uninfected[51].veinsmobility posy ETV
vector 254 TestScenario.exploited[52].veinsmobility posx ETV
vector 255 TestScenario.exploited[52].veinsmobility posy ETV
vector 256 TestScenario.uninfected[50].veinsmobility speed ETV
vector 257 TestScenario.uninfected[50].veinsmobility acceleration ETV
vector 258 TestScenario.uninfected[50].veinsmobility co2emission ETV
vector 259 TestScenario.uninfected[51].veinsmobility speed ETV
vector 260 TestScenario.exploited[52].veinsmobility speed ETV
vector 261 TestScenario.uninfected[53].veinsmobility posx ETV
vector 262 TestScenario.uninfected[53].veinsmobility posy ETV
vector 263 TestScenario.uninfected[51].veinsmobility acceleration ETV
vector 264 TestScenario.uninfected[51].veinsmobility co2emission ETV
vector 265 TestScenario.exploited[52].veinsmobility acceleration ETV
vector 266 TestScenario.exploited[52].veinsmobility co2emission ETV
vector 267 TestScenario.exploited[54].veinsmobility posx ETV
vector 268 TestScenario.exploited[54].veinsmobility posy ETV
vector 269 TestScenario.uninfected[53].veinsmobility speed ETV
vector 270 TestScenario.uninfected[55].veinsmobility posx ETV
vector 271 TestScenario.uninfected[55].veinsmobility posy ETV
vector 272 TestScenario.uninfected[56].veinsmobility posx ETV
vector 273 TestScenario.uninfected[56].veinsmobility posy ETV
vector 274 TestScenario.uninfected[53].veinsmobility acceleration ETV
vector 275 TestScenario.uninfected[53].veinsmobility co2emission ETV
vector 276 TestScenario.exploited[54].veinsmobility speed ETV
vector 277 TestScenario.uninfected[57].veinsmobility posx ETV
vector 278 TestScenario.uninfected[57].veinsmobility posy ETV
vector 279 TestScenario.exploited[54].veinsmobility acceleration ETV
vector 280 TestScenario.exploited[54].veinsmobility co2emission ETV
vector 281 TestScenario.uninfected[55].veinsmobility speed ETV
vector 282 TestScenario.uninfected[56].veinsmobility speed ETV
vector 283 TestScenario.uninfected[58].veinsmobility posx ETV
vector 284 TestScenario.uninfected[58].veinsmobility posy ETV
vector 285 TestScenario.uninfected[55].veinsmobility acceleration ETV
vector 286 TestScenario.uninfected[55].veinsmobility co2emission ETV
vector 287 TestScenario.uninfected[56].veinsmobility acceleration ETV
vector 288 TestScenario.uninfected[56].veinsmobility co2emission ETV
vector 289 TestScenario.uninfected[57].veinsmobility speed ETV
vector 290 TestScenario.uninfected[59].veinsmobility posx ETV
vector 291 TestScenario.uninfected[59].veinsmobility posy ETV
vector 292 TestScenario.uninfected[57].veinsmobility acceleration ETV
vector 293 TestScenario.uninfected[57].veinsmobility co2emission ETV
vector 294 TestScenario.uninfected[58].veinsmobility speed ETV
vector 295 TestScenario.uninfected[60].veinsmobility posx ETV
vector 296 TestScenario.uninfected[60].veinsmobility posy ETV
vector 297 TestScenario.uninfected[58].veinsmobility acceleration ETV
vector 298 TestScenario.uninfected[58].veinsmobility co2emission ETV
vector 299 TestScenario.uninfected[59].veinsmobility speed ETV
53	42865 1330 13 55232 12 61 50 0.973 8.3036721827022 156.6777678816 732.36690007095
52	44195 1484 13 55232 12 61 50 -3.3747401821974 2.1768242706242 9.6660937410826 111.47958575691
49	45679 1434 12 55232 11 61 51 3.4112935226373 13.888485842573 576.45399596059 7100.5389382679
41	47113 1297 11 55232 10 61 52 438.37394646382 801.23678551265 31766.558681199 19829562.15052
40	48410 1141 11 55232 10 61 52 423.4 623.4 26804.749054209 14228815.858771
vector 300 TestScenario.uninfected[61].veinsmobility posx ETV
vector 301 TestScenario.uninfected[61].veinsmobility posy ETV
vector 302 TestScenario.uninfected[59].veinsmobility acceleration ETV
vector 303 TestScenario.uninfected[59].veinsmobility co2emission ETV
vector 304 TestScenario.uninfected[60].veinsmobility speed ETV
73	49882 1291 37 58388 16 62 47 0.973 8.0464415416025 132.95946114882 534.90528509473
72	51173 1419 37 58388 16 62 47 -3.9201277929257 2.0630438272678 10.081650344465 63.084171920426
69	52592 1361 16 58388 15 62 48 3.8004325452788 13.882082889744 578.405224527 7405.6842609302
61	53953 1220 15 58388 14 62 49 26.6 411.64691181547 8266.5145297256 2379653.8951876
60	55173 1013 15 58388 14 62 49 26.6 201.54138749894 2521.0991036391 244664.1954026
168	56186 838 10576 58388 35 62 28 1.6154438537414 8.5082596948602 78.073914818232 306.00367257851
167	57024 893 10576 58388 35 62 28 -0.12050963559188 2.04289163901 9.6213388854735 18.610285131779
164	57917 864 9665 58388 34 62 29 4.181256988586 13.889535780903 371.75246875498 4943.5723139143
156	58781 598 8638 58388 33 62 30 826.6 826.6 24798 20498026.8
155	59379 895 8638 58388 33 62 30 238.34817816166 590.83208727856 11847.31598769 5062906.0560729
vector 305 TestScenario.uninfected[60].veinsmobility acceleration ETV
vector 306 TestScenario.uninfected[60].veinsmobility co2emission ETV
vector 307 TestScenario.uninfected[61].veinsmobility speed ETV
vector 308 TestScenario.uninfected[62].veinsmobility posx ETV
vector 309 TestScenario.uninfected[62].veinsmobility posy ETV
vector 310 TestScenario.uninfected[63].veinsmobility posx ETV
vector 311 TestScenario.uninfected[63].veinsmobility posy ETV
vector 312 TestScenario.uninfected[61].veinsmobility acceleration ETV
vector 313 TestScenario.uninfected[61].veinsmobility co2emission ETV
148	60872 959 7066 63681 31 64 34 0.973 8.7380869853613 108.94107437241 523.98303019686
147	61831 1061 7066 63681 31 64 34 -3.1549221925415 2.4593969439529 9.9563549761211 76.937250054148
144	62892 1039 5682 63681 30 64 35 1.7537069881504 13.887366050095 384.36125922306 4747.5048373669
136	63931 874 5360 63681 29 64 36 446.55499071455 626.6 21279.454551772 12690423.352988
135	64805 934 5360 63681 29 64 36 238.34780656187 426.6 13287.362452294 5081153.6860562
88	65739 1265 387 63681 19 64 46 0.973 8.0573176685972 133.28311824532 574.71958433646
87	67004 1393 387 63681 19 64 46 -3.3360559603958 2.2998823654721 9.5706283263986 65.692425419856
84	68397 1337 173 63681 18 64 47 4.2870338742172 13.888224797316 573.74951477537 7402.2944133061
76	69734 1005 78 63681 17 64 48 23.4 193.3318645822 2283.9824522794 216499.35375182
75	70739 1233 78 63681 17 64 48 223.4 611.61734681937 17692.023311222 7490742.9547571
vector 314 TestScenario.exploited[64].veinsmobility posx ETV
vector 315 TestScenario.exploited[64].veinsmobility posy ETV
vector 316 TestScenario.uninfected[62].veinsmobility speed ETV
vector 317 TestScenario.uninfected[63].veinsmobility speed ETV
vector 318 TestScenario.uninfected[65].veinsmobility posx ETV
vector 319 TestScenario.uninfected[65].veinsmobility posy ETV
vector 320 TestScenario.uninfected[62].veinsmobility acceleration ETV
vector 321 TestScenario.uninfected[62].veinsmobility co2emission ETV
vector 322 TestScenario.uninfected[63].veinsmobility acceleration ETV
vector 323 TestScenario.uninfected[63].veinsmobility co2emission ETV
vector 324 TestScenario.exploited[64].veinsmobility speed ETV
vector 325 TestScenario.uninfected[66].veinsmobility posx ETV
vector 326 TestScenario.uninfected[66].veinsmobility posy ETV
vector 327 TestScenario.exploited[64].veinsmobility acceleration ETV
vector 328 TestScenario.exploited[64].veinsmobility co2emission ETV
vector 329 TestScenario.uninfected[65].veinsmobility speed ETV
vector 330 TestScenario.uninfected[67].veinsmobility posx ETV
vector 331 TestScenario.uninfected[67].veinsmobility posy ETV
vector 332 TestScenario.uninfected[65].veinsmobility acceleration ETV
vector 333 TestScenario.uninfected[65].veinsmobility co2emission ETV
vector 334 TestScenario.uninfected[66].veinsmobility speed ETV
vector 335 TestScenario.uninfected[68].veinsmobility posx ETV
vector 336 TestScenario.uninfected[68].veinsmobility posy ETV
vector 337 TestScenario.uninfected[66].veinsmobility acceleration ETV
vector 338 TestScenario.uninfected[66].veinsmobility co2emission ETV
vector 339 TestScenario.uninfected[67].veinsmobility speed ETV
vector 340 TestScenario.exploited[69].veinsmobility posx ETV
vector 341 TestScenario.exploited[69].veinsmobility posy ETV
vector 342 TestScenario.uninfected[67].veinsmobility acceleration ETV
vector 343 TestScenario.uninfected[67].veinsmobility co2emission ETV
vector 344 TestScenario.uninfected[68].veinsmobility speed ETV
vector 345 TestScenario.uninfected[68].veinsmobility acceleration ETV
vector 346 TestScenario.uninfected[68].veinsmobility co2emission ETV
vector 347 TestScenario.exploited[69].veinsmobility speed ETV
vector 348 TestScenario.uninfected[70].veinsmobility posx ETV
vector 349 TestScenario.uninfected[70].veinsmobility posy ETV
vector 350 TestScenario.exploited[69].veinsmobility acceleration ETV
vector 351 TestScenario.exploited[69].veinsmobility co2emission ETV
198	74484 918 16033 82775 41 72 32 0.973 8.0538827684401 102.54587882146 475.74766561306
197	75402 1006 16033 82775 41 72 32 -3.2919123331916 2.2232925984915 9.660531397458 62.428817113742
194	76408 985 14938 82775 40 72 33 4.1589409556698 13.880922705762 377.27500113977 4669.4105984449
186	77393 829 14348 82775 39 72 34 253.26636543209 426.6 13315.048347727 5314074.405809
185	78222 886 14348 82775 39 72 34 38.371657334534 226.6 5669.3324388002 1115300.3304572
33	79108 1729 9 82775 8 72 65 0.973 8.0833055769656 185.75539406447 795.01626777996
32	80837 1948 9 82775 8 72 65 -3.3964848116845 2.1357271100557 9.8881136271734 111.03384138138
29	82785 1847 8 82775 7 72 66 3.6002955662995 13.882956327561 765.26964071347 9657.7810076429
21	84632 1746 7 82775 6 72 67 31.329856620158 426.6 15984.1278393 5175895.6085099
20	86378 1378 7 82775 6 72 67 623.4 794.01379612891 42985.68535049 27691676.223059
vector 352 TestScenario.uninfected[71].veinsmobility posx ETV
vector 353 TestScenario.uninfected[71].veinsmobility posy ETV
vector 354 TestScenario.uninfected[72].veinsmobility posx ETV
vector 355 TestScenario.uninfected[72].veinsmobility posy ETV
vector 356 TestScenario.uninfected[70].veinsmobility speed ETV
128	88072 1359 4549 86429 27 73 47 0.973 8.0364567626641 133.09724979558 547.1370779069
127	89431 1485 4549 86429 27 73 47 -3.1633293288089 2.0593332372839 9.7436744044425 63.601857503673
124	90916 1413 4014 86429 26 73 48 3.644202668598 13.887899353777 568.4562790269 7268.7817463783
116	92329 1455 3326 86429 25 73 49 430.67186828018 797.41888662883 28084.674464396 16626919.751779
115	93784 932 3326 86429 25 73 49 23.4 26.6 1209.1437365604 29955.087488217
vector 357 TestScenario.uninfected[73].veinsmobility posx ETV
vector 358 TestScenario.uninfected[73].veinsmobility posy ETV
vector 359 TestScenario.uninfected[70].veinsmobility acceleration ETV
vector 360 TestScenario.uninfected[70].veinsmobility co2emission ETV
vector 361 TestScenario.uninfected[71].veinsmobility speed ETV
vector 362 TestScenario.uninfected[72].veinsmobility speed ETV
vector 363 TestScenario.uninfected[74].veinsmobility posx ETV
vector 364 TestScenario.uninfected[74].veinsmobility posy ETV
vector 365 TestScenario.uninfected[71].veinsmobility acceleration ETV
vector 366 TestScenario.uninfected[71].veinsmobility co2emission ETV
vector 367 TestScenario.uninfected[72].veinsmobility acceleration ETV
vector 368 TestScenario.uninfected[72].veinsmobility co2emission ETV
vector 369 TestScenario.uninfected[73].veinsmobility speed ETV
68	95583 1695 16 91723 15 75 61 0.973 8.458010438292 163.54817297423 619.2546501648
67	97278 1856 16 91723 15 75 61 -3.2444441633504 2.4733185232221 9.8894760923653 68.032655456783
64	99134 1759 15 91723 14 75 62 3.4391091585513 13.889598088698 781.69315007649 10296.245428265
56	100893 1657 14 91723 13 75 63 38.36469348464 626.6 24608.869847298 12366539.402986
55	102550 1321 14 91723 13 75 63 623.4 801.53314819639 40527.107176808 26198485.251961
vector 370 TestScenario.uninfected[75].veinsmobility posx ETV
vector 371 TestScenario.uninfected[75].veinsmobility posy ETV
vector 372 TestScenario.uninfected[73].veinsmobility acceleration ETV
vector 373 TestScenario.uninfected[73].veinsmobility co2emission ETV
vector 374 TestScenario.uninfected[74].veinsmobility speed ETV
63	104202 1727 15 97027 14 76 63 0.973 7.959640925036 180.2300102317 760.30835865698
62	105929 1904 15 97027 14 76 63 -4.3879524113032 2.0307485904801 9.7894603537941 103.71476065705
59	107833 1792 14 97027 13 76 64 3.65 13.882164987109 756.55950859947 9610.3139059168
51	109625 1495 13 97027 12 76 65 458.71512260332 826.6 48573.840140783 37159100.4972
50	111120 1569 13 97027 12 76 65 226.6 419.33184304172 18405.043921278 5519096.0691561
vector 375 TestScenario.exploited[76].veinsmobility posx ETV
vector 376 TestScenario.exploited[76].veinsmobility posy ETV
vector 377 TestScenario.uninfected[74].veinsmobility acceleration ETV
vector 378 TestScenario.uninfected[74].veinsmobility co2emission ETV
vector 379 TestScenario.uninfected[75].veinsmobility speed ETV
48	113018 1777 12 100425 11 77 67 0.973 8.3566090274321 187.04746614287 772.03861405494
47	114795 2005 12 100425 11 77 67 -3.2367208849682 2.360095183535 1.507542307132 131.10062397167
44	116800 1922 11 100425 10 77 68 3.9024381770133 13.889635096786 771.14189031194 9529.1653497598
36	118722 1595 10 100425 9 77 69 23.4 423.4 15959.418789531 5652229.4836021
35	120317 1644 10 100425 9 77 69 441.40403209974 811.64220992029 43637.670240354 28097433.843112
vector 380 TestScenario.uninfected[77].veinsmobility posx ETV
vector 381 TestScenario.uninfected[77].veinsmobility posy ETV
vector 382 TestScenario.uninfected[75].veinsmobility acceleration ETV
vector 383 TestScenario.uninfected[75].veinsmobility co2emission ETV
vector 384 TestScenario.exploited[76].veinsmobility speed ETV
vector 385 TestScenario.uninfected[78].veinsmobility posx ETV
vector 386 TestScenario.uninfected[78].veinsmobility posy ETV
vector 387 TestScenario.exploited[76].veinsmobility acceleration ETV
vector 388 TestScenario.exploited[76].veinsmobility co2emission ETV
vector 389 TestScenario.uninfected[77].veinsmobility speed ETV
2	122620 1454 3 109074 2 79 78 26.6 211.61882214952 4042.6607677811 442463.95994398
3	124074 1916 3 109074 2 79 78 47.280518314511 823.4 41499.582238447 27383413.948763
9	125990 2065 4 109074 3 79 77 3.805675440561 13.889190463435 972.90371607475 12769.266166625
12	128055 2282 5 109074 4 79 76 -4.4584823013013 2.0985532370117 5.5778511823198 93.190062531609
13	130337 2044 5 109074 4 79 76 0.973 8.8891102605953 198.21301208058 748.23652431337
15	132381 1569 6 109074 5 79 75 426.6 623.4 35814.12351333 17557197.61701
16	133950 1935 6 109074 5 79 75 226.6 811.65841929311 32150.370505255 16924142.825747
24	135885 2077 7 109074 6 79 74 2.7432371396556 13.886014063652 898.09460977232 11595.322036762
25	137962 1557 8 109074 7 79 73 591.25960135519 826.6 57473.28474614 45600079.229255
26	139519 1843 8 109074 7 79 73 230.6812984578 623.4 33191.599265913 16625167.66099
27	141362 2186 8 109074 7 79 73 -4.0714498029905 2.2800457733381 9.7640563383694 110.00111514812
28	143548 1983 8 109074 7 79 73 0.973 8.8084735685517 202.54952036803 818.93233962408
30	145531 1884 9 109074 8 79 72 426.6 619.17076373927 36371.042992185 18731925.645233
31	147415 1516 9 109074 8 79 72 623.4 823.4 50271.986740793 35662305.786447
34	148931 2024 9 109074 8 79 72 3.3810971666615 13.884674272633 823.61599312958 10248.881284188
37	150955 2097 10 109074 9 79 71 -4.5 2.535222472162 9.8014063847264 155.17213113228
38	153052 1900 10 109074 9 79 71 0.973 8.5452179413821 215.71186739436 1006.3490684054
39	154952 2008 10 109074 9 79 71 3.5200028661359 13.889744921199 766.91364313323 9228.1894108193
42	156960 2088 11 109074 10 79 70 -4.4185599269198 2.2780713438196 0.70020483783459 174.99764420316
43	159048 1835 11 109074 10 79 70 0.973 8.8090550130462 206.5446206816 948.58962101587
45	160883 1838 12 109074 11 79 69 226.6 811.61667995088 32549.184901078 18126462.924986
46	162721 1413 12 109074 11 79 69 466.55774745667 623.4 42027.405158727 25690507.44595
54	164134 1927 13 109074 12 79 68 3.6684437991349 13.884394628941 758.21416709454 9239.1606353135
57	166061 2007 14 109074 13 79 67 -3.2158382217867 2.4516298495722 9.7923921001262 150.94665241826
58	168068 1774 14 109074 13 79 67 0.973 8.2244579944351 208.0738327367 978.91090583129
65	169842 1639 16 109074 15 79 65 26.6 226.6 6821.3708449005 1104711.2153392
66	171481 1453 16 109074 15 79 65 385.3455485181 623.4 34120.252520615 18465838.591492
74	172934 1834 37 109074 16 79 64 0.26000000000083 13.882380130515 634.5972137271 7544.1287988381
77	174768 1887 78 109074 17 79 63 -4.0952993030981 2.3151573170349 9.8031140638485 174.34757296262
78	176655 1651 78 109074 17 79 63 0.973 8.9171243722908 197.56750866844 949.43708175134
80	178306 1479 173 109074 18 79 62 226.6 623.4 28111.007892754 14374353.3412
81	179785 1488 173 109074 18 79 62 638.36861228683 823.4 48321.418821909 37891201.359156
85	181273 1342 387 109074 19 79 61 223.4 411.64985526385 15757.741287868 4291997.9231624
86	182615 1578 387 109074 19 79 61 430.85114765493 823.4 40004.526505557 27635278.7659
89	184193 1749 387 109074 19 79 61 3.9475584061126 13.888144439573 730.74286867501 9299.4105741515
90	185942 1317 647 109074 20 79 60 638.35708656023 826.6 47589.963258571 37971808.96934
91	187259 1544 647 109074 20 79 60 277.87573308644 826.6 38411.109473339 26640938.835805
92	188803 1812 647 109074 20 79 60 -4.5 2.180739988822 9.8548086172613 101.56498187345
93	190615 1649 647 109074 20 79 60 0.973 8.3700742689555 175.04405954625 756.76876497122
94	192264 1721 647 109074 20 79 60 3.5317258057068 13.882833811692 703.87540342714 8895.1127348716
97	193985 1795 1181 109074 21 79 59 -4.4955312920967 2.0259866650566 9.9319343884849 105.54284141145
98	195780 1622 1181 109074 21 79 59 0.973 8.596229911566 173.05209438003 746.9630868619
99	197402 1696 1181 109074 21 79 59 4.1509726031868 13.889706597512 753.64651216679 9962.5531692199
100	199098 1566 1772 109074 22 79 58 238.38625397686 678.97421850602 25138.004757226 11607598.265781
101	200664 1327 1772 109074 22 79 58 26.6 226.6 7218.4466812479 1373076.6160701
102	201991 1842 1772 109074 22 79 58 -4.4857934113228 2.1035161463567 9.6974901759324 58.47266808824
103	203833 1695 1772 109074 22 79 58 0.973 8.0785038385085 154.75132019365 581.24124692438
105	205528 1607 2368 109074 23 79 57 431.14590653289 618.63865361421 31292.348439276 17462031.794513
106	207135 1161 2368 109074 23 79 57 623.4 626.6 35643.075594399 22288361.229467
109	208296 1697 2368 109074 23 79 57 3.9773538981508 13.888723053578 654.41124598706 8133.3234507671
112	209993 1755 3114 109074 24 79 56 -3.2008639760146 2.4744105512416 9.7082601036353 109.85754097047
113	211748 1586 3114 109074 24 79 56 0.973 8.0516756609492 169.2774740487 760.69633538066
114	213334 1524 3114 109074 24 79 56 0 13.862487124004 379.26819228868 4274.0697250472
117	214858 1563 3326 109074 25 79 55 -3.2184748895661 2.2482246294994 1.214468372869 113.4112415302
118	216421 1381 3326 109074 25 79 55 0.973 8.3274568250581 130.36557255839 532.93791704052
120	217802 1412 4014 109074 26 79 54 26.6 482.11230327791 9193.0977696189 2835157.0853523
121	219214 1229 4014 109074 26 79 54 26.6 211.62139425341 3408.2270296161 426247.64233701
125	220443 1265 4549 109074 27 79 53 226.6 423.4 17214.046181971 6002697.4331822
126	221708 1422 4549 109074 27 79 53 226.6 422.66199923167 15638.241636606 4879360.53545
129	223130 1579 4549 109074 27 79 53 3.8252822404029 13.889854134803 658.36535171289 8603.3300116383
130	224709 1211 4879 109074 28 79 52 426.6 623.4 26844.174062375 14261134.544331
131	225920 1387 4879 109074 28 79 52 26.6 219.51024158103 4851.2797767594 698850.95796027
132	227307 1655 4879 109074 28 79 52 -4.4800660897302 2.1519728491711 9.8361492312261 71.907337646063
133	228962 1523 4879 109074 28 79 52 0.973 8.4385608793847 144.90671988372 569.60272812005
134	230485 1554 4879 109074 28 79 52 3.5707055925581 13.888024646461 583.21896874168 7094.9315990675
137	232039 1597 5360 109074 29 79 51 -4.4980149018103 2.3620093891793 3.1201254727712 132.81151510271
138	233636 1432 5360 109074 29 79 51 0.973 9.3005341274755 156.27531917318 737.31120251144
139	235068 1522 5360 109074 29 79 51 3.8640796656667 13.88679100526 589.42616621411 7330.6625218384
140	236590 1205 5682 109074 30 79 50 223.4 411.63995262118 13222.19816542 3706974.6075883
141	237795 1305 5682 109074 30 79 50 423.4 807.27301306666 26955.980796533 15395226.099089
142	239100 1575 5682 109074 30 79 50 -4.4609507136035 2.3787893461599 9.964510267629 103.21776553692
143	240675 1420 5682 109074 30 79 50 0.973 8.5563188680996 155.22873663732 717.60278069686
145	242095 1184 7066 109074 31 79 49 438.36008396157 623.4 28549.269565906 16835711.871308
146	243279 1274 7066 109074 31 79 49 226.6 603.75639695291 16453.656561515 6306028.9687025
149	244553 1463 7066 109074 31 79 49 3.9729070189121 13.863062280165 574.01062790348 7237.1861694434
150	246016 1020 7598 109074 32 79 48 623.4 626.6 29991.301737086 18739236.245808
151	247036 1435 7598 109074 32 79 48 430.64510386436 619.29910883842 24287.561649248 12504031.270781
152	248471 1531 7598 109074 32 79 48 -3.2769017893648 2.3321656768862 -0.053876187403105 89.843236427113
153	250002 1355 7598 109074 32 79 48 0.973 8.0755178445463 131.46427317434 529.5601638203
154	251357 1437 7598 109074 32 79 48 3.748875256705 13.888649358181 578.90137825644 7430.551253603
157	252794 1491 8638 109074 33 79 47 -3.0683326983439 2.3774285681383 9.6975523273666 64.005131723681
158	254285 1369 8638 109074 33 79 47 0.973 8.2954814242937 133.39721193316 546.11363692537
159	255654 1385 8638 109074 33 79 47 0 13.885794119532 425.50330112108 4893.9456642031
160	257039 922 9665 109074 34 79 46 826.6 826.6 38023.6 31430307.76
161	257961 1379 9665 109074 34 79 46 37.473062667799 611.59221256564 15861.851494958 6947406.6774411
162	259340 1432 9665 109074 34 79 46 -3.3198948651476 2.2179362594173 9.7183302637935 125.61000654801
163	260772 1247 9665 109074 34 79 46 0.973 8.2155603736637 144.43486082087 714.39235849035
165	262019 1092 10576 109074 35 79 45 438.37451770283 623.4 26079.442367638 15311066.916105
166	263111 1154 10576 109074 35 79 45 26.6 371.34128566433 5686.8988649279 1318904.2785835
169	264265 1345 10576 109074 35 79 45 4.2181048247584 13.889036190065 584.20749364783 7811.9099975755
170	265610 1315 12260 109074 36 79 44 431.03386094966 811.5960472953 26530.024488603 16729065.374322
171	266925 893 12260 109074 36 79 44 623.4 626.6 27449.577426034 17124582.53917
172	267818 1415 12260 109074 36 79 44 -4.4558284262629 2.0836557794479 2.4277201039201 45.934592502863
173	269233 1298 12260 109074 36 79 44 0.973 7.7849002512087 108.40733512632 365.04015933459
174	270531 1319 12260 109074 36 79 44 3.8295937978921 13.887312619174 546.07967488681 7094.9280430199
175	271850 1039 12974 109074 37 79 43 626.6 823.4 32343.025782869 24614656.833082
176	272889 1132 12974 109074 37 79 43 638.38051200518 823.4 33162.636336852 25754643.803932
177	274021 1366 12974 109074 37 79 43 -4.4477917488627 2.1630252832267 10.036800904674 58.649447525041
178	275387 1260 12974 109074 37 79 43 0.973 7.9829152212793 124.13604916055 511.03732467957
179	276647 1291 12974 109074 37 79 43 3.5241763998452 13.886771579026 446.09274400375 5240.2654491282
180	277938 843 13766 109074 38 79 42 623.4 623.4 26182.8 16322357.52
181	278781 1260 13766 109074 38 79 42 38.402688155551 516.65551898858 10926.867908719 3761198.5339455
182	280041 1311 13766 109074 38 79 42 -3.3279790339731 2.2616219780548 9.8807115678357 113.22227377733
183	281352 1172 13766 109074 38 79 42 0.973 7.9381565758886 139.7643415202 696.29547425773
184	282524 1256 13766 109074 38 79 42 3.8502084553754 13.88939373153 477.95630816093 5865.7770921245
187	283780 1289 14348 109074 39 79 41 -4.4902679499192 2.1025611187378 9.5259869996211 108.83661727143
188	285069 1173 14348 109074 39 79 41 0.973 8.5585675453021 137.85142798801 674.91419712382
189	286242 1227 14348 109074 39 79 41 3.9905524540473 13.855301514184 497.5140571911 6285.070529707
190	287469 1041 14938 109074 40 79 40 638.35516068135 826.6 30994.132162975 24204133.987198
191	288510 1002 14938 109074 40 79 40 623.4 826.6 30472.756916648 23463883.484376
192	289512 1259 14938 109074 40 79 40 -3.1079738174615 2.1645873229997 9.8141618601173 59.998590286748
193	290771 1140 14938 109074 40 79 40 0.973 8.9693060527802 124.58088846471 574.92920993453
195	291911 803 16033 109074 41 79 39 223.4 226.6 8773.447443447 1973771.1221339
196	292714 1168 16033 109074 41 79 39 30.692061621191 219.33166010229 4750.9876951237 742881.22613019
199	293882 1168 16033 109074 41 79 39 3.507570754505 13.883288972762 429.86315262828 5168.3514901107
200	295050 1186 17205 109074 42 79 38 -4.491963570418 2.109712007842 9.3439381977774 106.17229072835
201	296236 1067 17205 109074 42 79 38 0.973 8.7717729455754 130.90463394429 675.29350532612
202	297303 1127 17205 109074 42 79 38 3.5555500253523 13.88047193703 377.04507709614 4357.670734654
203	298430 910 18310 109074 43 79 37 223.4 398.65150587024 9675.7388730988 2654566.9745069
204	299340 969 18310 109074 43 79 37 37.452001913111 226.6 6186.3679736508 1222807.2683365
205	300309 961 18310 109074 43 79 37 438.38132453808 623.55851017765 21076.99081871 12181464.158086
206	301270 922 18310 109074 43 79 37 226.6 418.90957124353 10098.981055528 2916120.6512806
207	302192 1161 18310 109074 43 79 37 -3.3392361496201 2.0680879537552 -0.007920142963977 93.191066598253
208	303353 1019 18310 109074 43 79 37 0.973 8.5690615771075 107.39949323364 489.95795390414
209	304372 1076 19964 109074 44 79 36 231.4953836657 419.32464399339 11805.519325185 4013642.2508849
210	305448 733 19964 109074 44 79 36 823.4 826.6 29704.649287987 24510260.947892
211	306181 1080 19964 109074 44 79 36 2.771949695573 13.887231185827 369.26474036033 4250.0888673161
212	307261 1081 19964 109074 44 79 36 3.5883340453952 13.883672060466 381.77391677696 4519.3337327719
213	308342 1050 20936 109074 45 79 35 34.392727939058 456.92014168508 7896.736020374 2411330.2811545
214	309392 703 20936 109074 45 79 35 826.6 826.6 28931 23914364.6
215	310095 1093 20936 109074 45 79 35 -2.660465608667 2.5526199111738 3.8533589770335 80.283459886132
216	311188 940 20936 109074 45 79 35 0.973 8.3235781006015 105.25735247524 494.05308325293
217	312128 1096 20936 109074 45 79 35 -3.1630657026113 2.3300684560182 1.725897037952 97.382939913027
218	313224 970 20936 109074 45 79 35 0.973 8.8453979907403 107.77577038643 511.44071967428
219	314194 1049 20936 109074 45 79 35 3.5687187515758 13.885523801558 389.93187694899 4809.5390099416
220	315243 835 22848 109074 46 79 34 26.6 209.1201056814 2366.5288349461 291413.35314771
221	316078 872 22848 109074 46 79 34 226.6 411.61222802961 9664.3174943601 2915249.5104176
222	316950 1069 22848 109074 46 79 34 -3.2034630803105 2.0812230827892 9.7947962454183 64.199831078036
223	318019 969 22848 109074 46 79 34 0.973 8.5313153706632 106.886623961 504.29301215118
224	318988 1018 22848 109074 46 79 34 4.0906000954288 13.889452377504 441.36817188961 5909.9048450289
225	320006 663 24192 109074 47 79 33 626.6 626.6 20677.8 12956709.48
226	320669 988 24192 109074 47 79 33 419.9664021493 811.63017494145 21009.979970097 13893224.601797
227	321657 1058 24192 109074 47 79 33 -0.11827084865188 2.0584537204448 9.7424201939346 18.926682423049
228	322715 987 24192 109074 47 79 33 1.6228379614632 7.7460808035642 88.453719365519 325.21644815314
229	323702 992 24192 109074 47 79 33 3.3964634599017 13.888317763915 369.7546337389 4518.0639363698
230	324694 857 26126 109074 48 79 32 438.34570969169 626.6 17988.648792778 10274232.270033
231	325551 761 26126 109074 48 79 32 297.84539177981 426.6 12970.679965342 5303307.3523684
232	326312 1011 26126 109074 48 79 32 -4.3881485185846 2.0976310302992 -0.55878488341888 88.527160127422
233	327323 899 26126 109074 48 79 32 0.973 8.4046742396659 98.244857970439 469.17413022963
234	328222 962 26126 109074 48 79 32 3.9539031448178 13.885280949599 410.35534694674 5459.0739574853
235	329184 932 28218 109074 49 79 31 491.14038062279 811.63490516636 20669.465223981 14082334.427277
236	330116 623 28218 109074 49 79 31 623.4 623.4 19325.4 12047454.36
237	330739 996 28218 109074 49 79 31 -0.099535687286407 2.21484622085 9.8483193181213 18.204586871771
238	331735 930 28218 109074 49 79 31 1.6863572963922 8.3062323417586 84.095400368822 311.75787633784
239	332665 928 28218 109074 49 79 31 2.7566737080653 13.887889739061 333.05196864519 4030.6957480959
240	333593 700 29575 109074 50 79 30 316.55601117238 426.6 12289.804389325 5064718.7357666
241	334293 810 29575 109074 50 79 30 23.4 212.550006634 2848.8439474975 429985.9355407
242	335103 939 29575 109074 50 79 30 -3.1059395115874 2.1537218553387 9.8071824098209 70.89531706881
243	336042 854 29575 109074 50 79 30 0.973 8.771353454171 99.830686886351 485.9361284999
244	336896 900 29575 109074 50 79 30 3.9904398925637 13.87106610995 339.61087782279 4188.2568475297
245	337796 913 32961 109074 51 79 29 -3.1565125804797 2.4191758092656 9.8217234512011 65.839266789204
246	338709 832 32961 109074 51 79 29 0.973 8.3207936607835 97.957508086132 487.64067032055
247	339541 872 32961 109074 51 79 29 2.8581608348357 13.881581151604 315.31991938782 3802.2495879724
248	340413 662 34263 109074 52 79 28 520.40272491103 623.4 17000.384250281 10346749.349451
249	341075 751 34263 109074 52 79 28 237.37631018132 423.4 9779.6944102897 3565043.7236872
250	341826 880 34263 109074 52 79 28 -3.2997643442455 2.1508207541867 10.990639184013 66.828788907927
251	342706 798 34263 109074 52 79 28 0.973 8.4062366397506 96.503198054729 474.17232448728
252	343504 744 36980 109074 53 79 27 26.6 212.54830498206 2821.0921133794 434405.96959629
253	344248 612 36980 109074 53 79 27 357.9408974529 423.4 11224.482518097 4674079.6906436
254	344860 808 36980 109074 53 79 27 430.61027117703 611.61576815333 13526.121594773 6905053.9814065
255	345668 579 36980 109074 53 79 27 23.4 26.6 647.02865290545 15533.545790143
256	346247 808 36980 109074 53 79 27 2.7250647477917 13.885135312683 306.70945477251 3789.8416565451
257	347055 817 38664 109074 54 79 26 -4.4484579301985 2.2222449617693 11.090029709284 63.072380049513
258	347872 757 38664 109074 54 79 26 0.973 8.00328950376 90.663318234987 458.12791372967
259	348629 779 38664 109074 54 79 26 2.8003225973823 13.859535670124 268.4043910836 3120.3457656869
260	349408 778 38664 109074 54 79 26 1.1557976760087e-012 13.84418223477 203.30498352182 2264.5400759496
261	350186 751 41033 109074 55 79 25 532.15318828159 815.66034525524 17316.730235908 12207457.823931
262	350937 478 41033 109074 55 79 25 23.4 23.4 585 13689
263	351415 784 41033 109074 55 79 25 -3.2728374112415 2.1424137382116 10.995820184237 63.16875113389
264	352199 713 41033 109074 55 79 25 0.973 7.8566396153456 88.905390785725 442.73306441709
265	352912 781 41033 109074 55 79 25 -3.1658724778554 2.1364225401777 4.1212877008356 68.022459279403
266	353693 672 41033 109074 55 79 25 0.973 7.8266617486891 70.575512596101 312.05611578785
267	354365 483 44326 109074 56 79 24 226.6 226.6 5438.4 1232341.44
268	354848 721 44326 109074 56 79 24 341.79303432756 611.63816285448 11884.721770487 6071178.3897592
269	355569 719 44326 109074 56 79 24 3.9923801231887 13.865833303961 302.08964417643 3975.4266656396
270	356288 662 46426 109074 57 79 23 626.6 816.00373892415 16487.617254151 11936654.347698
271	356950 513 46426 109074 57 79 23 790.07680157535 823.4 18864.073119793 15473436.09446
272	357463 692 46426 109074 57 79 23 231.03258769813 411.61142900466 7214.0450767285 2367052.7820379
273	358155 473 46426 109074 57 79 23 623.4 626.6 14348.578274868 8951404.8388171
274	358628 738 46426 109074 57 79 23 -0.096834621729794 2.0251846467261 9.7905065273503 19.189476130296
275	359366 692 46426 109074 57 79 23 1.6940332300015 8.0821837139763 68.119568419632 284.53571553226
276	360058 690 46426 109074 57 79 23 4.0154421711668 13.879422602879 288.8747528097 3798.0467503161
277	360748 663 48350 109074 58 79 22 632.39165697135 811.62718513081 15790.036699948 11432244.215503
278	361411 443 48350 109074 58 79 22 423.4 423.4 9314.8 3943886.32
279	361854 708 48350 109074 58 79 22 -0.080399213500787 2.1247321249964 9.7548244923817 19.166875027142
280	362562 659 48350 109074 58 79 22 1.7508979155572 8.0987874993765 66.0837251621 280.28992647713
281	363221 661 48350 109074 58 79 22 3.6190884588119 13.876716153647 238.7519585258 2815.0251003446
282	363882 659 48350 109074 58 79 22 3.5423715643701 13.888623438133 208.41757730096 2319.0925952803
283	364541 628 51114 109074 59 79 21 32.79268577388 211.6252223562 2546.3165167223 400723.2857668
284	365169 423 51114 109074 59 79 21 223.4 223.4 4691.4 1048058.76
285	365592 656 51114 109074 59 79 21 -3.1477569440031 2.0746754272049 10.176245440939 49.15946511961
286	366248 590 51114 109074 59 79 21 0.973 8.3681608754787 78.434272823388 426.74107050664
287	366838 660 51114 109074 59 79 21 -3.3524381723403 2.1600407009781 5.5193732874453 59.230611830237
288	367498 583 51114 109074 59 79 21 0.973 7.6373819585559 67.242343273293 329.45610170926
289	368081 620 51114 109074 59 79 21 0 13.882558960603 178.58236119141 2084.9357669853
290	368701 405 52997 109074 60 79 20 26.6 31.517062009314 537.52027853461 14469.420187021
291	369106 591 52997 109074 60 79 20 26.6 211.63887514458 2495.6006335885 400481.02073259
292	369697 629 52997 109074 60 79 20 -3.1756424027794 1.930286725685 -4.1323216037914 51.885793257313
293	370326 521 52997 109074 60 79 20 0.973 8.1858656193548 53.433604596839 240.41948590089
294	370847 602 52997 109074 60 79 20 0.42778742102324 13.889567791808 178.60129521505 2092.5680097942
295	371449 572 55232 109074 61 79 19 238.37553266529 414.20145924798 6042.537970403 1995453.3177789
296	372021 383 55232 109074 61 79 19 226.6 226.6 4305.4 975603.64
297	372404 599 55232 109074 61 79 19 -3.3338991616178 2.1680062664626 -3.7063043763694 53.496608318033
298	373003 512 55232 109074 61 79 19 0.973 8.3644075075303 52.858362207167 250.15104433252
299	373515 570 55232 109074 61 79 19 3.840844268233 13.884388088575 197.5907288959 2324.1392083849
300	374085 355 58388 109074 62 79 18 26.6 26.63226580357 478.83226580357 12737.797581832
301	374440 542 58388 109074 62 79 18 231.97413937501 411.62777528565 6045.4675789932 2097850.0380183
302	374982 562 58388 109074 62 79 18 -4.4952178699407 2.0403376336908 3.1426826096734 59.533423950761
303	375544 511 58388 109074 62 79 18 0.973 8.2808076199273 58.599471303438 275.42145581416
304	376055 540 58388 109074 62 79 18 3.910436027475 13.869526334247 182.9605765836 2111.3811613984
305	376595 534 60064 109074 63 79 17 -3.2272543205768 2.4768124024034 2.3568402278745 50.182037056033
306	377129 471 60064 109074 63 79 17 0.973 8.2652383568703 54.835630153094 257.39163655331
307	377600 511 60064 109074 63 79 17 4.0622486755598 13.881703971939 187.59916628916 2271.1292140865
308	378111 323 63681 109074 64 79 16 423.4 423.4 6774.4 2868280.96
309	378434 482 63681 109074 64 79 16 237.32595909113 385.14257039876 4690.639734103 1414888.8082896
310	378916 481 63681 109074 64 79 16 438.34242474616 594.98066485401 8020.9185341225 4065634.0720001
311	379397 323 63681 109074 64 79 16 226.6 226.6 3625.6 821560.96
312	379720 507 63681 109074 64 79 16 -4.4993258358119 2.0716335429111 2.3416704304915 47.474370278071
313	380227 462 63681 109074 64 79 16 0.973 8.6440229231016 51.367091067698 252.69062592946
314	380689 303 66424 109074 65 79 15 626.6 626.6 9399 5889413.4
315	380992 451 66424 109074 65 79 15 667.06492160111 811.6362091083 11319.882445642 8578064.1196013
316	381443 452 66424 109074 65 79 15 2.4566451162601 13.874271992536 164.57662278764 2023.4329572969
317	381895 449 66424 109074 65 79 15 3.7978990778006 13.869465740316 168.38681447224 2055.8406467464
318	382344 283 68084 109074 66 79 14 826.6 826.6 11572.4 9565745.84
319	382627 422 68084 109074 66 79 14 478.7072189913 611.64070531623 7832.9078926435 4410621.9317577
320	383049 443 68084 109074 66 79 14 -2.9960447305774 2.3301452177251 8.3956608890444 30.742649982432
321	383492 411 68084 109074 66 79 14 0.973 7.7192075834572 49.997327351021 250.51649389769
322	383903 441 68084 109074 66 79 14 -3.0483473121595 2.1062966999668 4.0434872334535 38.054763766937
323	384344 398 68084 109074 66 79 14 0.973 8.6959614082028 48.279072889795 251.30244535201
324	384742 422 68084 109074 66 79 14 4.035241967992 13.881763331904 163.49072074809 2062.354888677
325	385164 393 69475 109074 67 79 13 295.64676848424 411.61456518507 4777.8554545733 1775882.0333022
326	385557 263 69475 109074 67 79 13 823.4 823.4 10704.2 8813838.28
327	385820 412 69475 109074 67 79 13 -0.088995584831572 2.0666173161194 9.8465213639121 19.155094711016
328	386232 392 69475 109074 67 79 13 1.7201888864334 8.8427269326903 48.180850657377 250.95802670028
329	386624 392 69475 109074 67 79 13 4.1580023229309 13.872961128962 152.07600106116 1915.2416435064
330	387016 360 71370 109074 68 79 12 306.10126937839 411.6238658766 4459.8439722823 1672940.2111928
331	387376 243 71370 109074 68 79 12 423.4 423.4 5080.8 2151210.72
332	387619 381 71370 109074 68 79 12 -0.056672724604141 2.1279403293785 9.6900056184106 18.894599366494
333	388000 363 71370 109074 68 79 12 1.8314321668538 7.8989729957338 46.063638357518 237.02682436374
334	388363 360 71370 109074 68 79 12 4.0034501923412 13.883192165489 134.91163043389 1657.1018315139
335	388723 330 73093 109074 69 79 11 34.390372435956 124.80888852773 745.23282101048 60853.576379557
336	389053 212 73093 109074 69 79 11 26.6 26.6 292.6 7783.16
337	389265 345 73093 109074 69 79 11 -0.11549599989084 1.8909734391235 9.7910044513293 17.623228312728
338	389610 331 73093 109074 69 79 11 1.6320136360352 7.8327761747105 43.610270281077 222.13164259815
339	389941 333 73093 109074 69 79 11 4.1836273158505 13.832947443407 124.19298929171 1527.9711723957
340	390274 203 75676 109074 70 79 10 226.6 226.6 2266 513475.6
341	390477 302 75676 109074 70 79 10 135.43827021258 211.64023213033 1842.9450280664 346382.37758778
342	390779 312 75676 109074 70 79 10 -0.04350441898452 2.1406687998795 9.5836977412342 18.882901939873
343	391091 301 75676 109074 70 79 10 1.8728480191649 8.2063765347171 41.705107019414 228.96920251867
344	391392 303 75676 109074 70 79 10 4.1735703527222 13.889944936424 109.42876973332 1320.0137818818
345	391695 282 78237 109074 71 79 9 -0.11440881381044 2.1277733923378 9.6313332471817 18.909225342977
346	391977 273 78237 109074 71 79 9 1.6361950437671 8.0736019827409 39.756199814889 230.57313708904
347	392250 272 78237 109074 71 79 9 3.9172325728965 13.843722395389 95.107816742408 1120.9724248158
348	392522 243 82775 109074 72 79 8 438.35455619017 486.37814823831 3639.9623280023 1658359.5369557
349	392765 163 82775 109074 72 79 8 426.6 426.6 3412.8 1455900.48
350	392928 248 82775 109074 72 79 8 -0.04424848517403 2.0845118440781 9.8822413373188 19.641540747448
351	393176 242 82775 109074 72 79 8 1.8712812026608 8.0887892011538 38.033483489712 226.68838129566
352	393418 143 86429 109074 73 79 7 226.6 226.6 1586.2 359432.92
353	393561 210 86429 109074 73 79 7 182.21019898031 212.4525795239 1416.4679670594 287421.50827777
354	393771 213 86429 109074 73 79 7 375.79295921665 411.63516335749 2793.2326416266 1115712.5211885
355	393984 143 86429 109074 73 79 7 423.4 423.4 2963.8 1254872.92
356	394127 211 86429 109074 73 79 7 3.861036727981 13.859153961036 67.208971760756 735.04572222669
357	394338 117 89425 109074 74 79 6 23.4 23.4 140.4 3285.36
358	394455 183 89425 109074 74 79 6 638.38132526921 663.68064529611 3883.2926862713 2513836.2274767
359	394638 185 89425 109074 74 79 6 -0.096685666837731 2.0890204796894 9.9014315662176 20.031999128841
360	394823 181 89425 109074 74 79 6 1.6940217008783 8.5831125264143 33.955093115325 222.08489234881
361	395004 182 89425 109074 74 79 6 2.9785839998789 12.845439519793 47.544750797149 444.94132930495
362	395186 182 89425 109074 74 79 6 4.1655521295262 13.86538908401 54.174471025453 554.35777717999
363	395368 152 91723 109074 75 79 5 796.1724679018 811.62648125538 4031.1675412273 3250235.095424
364	395520 103 91723 109074 75 79 5 223.4 223.4 1117 249537.8
365	395623 153 91723 109074 75 79 5 1.8614994142926 2.0330793349748 9.8668555199145 19.490190986995
366	395776 153 91723 109074 75 79 5 3.6802075461656 8.1246699046181 29.285294676673 182.93105252506
367	395929 152 91723 109074 75 79 5 1.882156250563 2.0117818533117 9.6998369544842 18.829295222978
368	396081 153 91723 109074 75 79 5 4.4247855490859 8.6346619166348 31.870811584107 214.08618963472
369	396234 153 91723 109074 75 79 5 4.1235921329075 12.140715065708 41.097456939431 377.90182776209
370	396387 83 97027 109074 76 79 4 426.6 426.6 1706.4 727950.24
371	396470 123 97027 109074 76 79 4 804.13406792428 811.82967483622 3236.7317114816 2619147.6043993
372	396593 123 97027 109074 76 79 4 1.8363562277588 2.1978929924662 8.0171229328005 16.15688887189
373	396716 123 97027 109074 76 79 4 4.7867260719343 7.2339978487733 24.223667595748 151.02588736847
374	396839 123 97027 109074 76 79 4 4.1057321482126 9.9885059660135 28.049560605382 216.29189066996
375	396962 93 100425 109074 77 79 3 34.381765990388 37.462100091471 106.22563207225 3767.6206084991
376	397055 63 100425 109074 77 79 3 826.6 826.6 2479.8 2049802.68
377	397118 93 100425 109074 77 79 3 1.8020950336126 2.1396681275056 5.8827738178009 11.59324857539
378	397211 92 100425 109074 77 79 3 3.979840187016 6.3563651943709 16.032333547013 88.688382477637
379	397303 93 100425 109074 77 79 3 3.6976594725211 7.6785220706609 17.074489727046 105.10310292264
380	397396 62 106422 109074 78 79 2 411.62717811037 411.62717811037 823.25435622073 338873.86751821
381	397458 42 106422 109074 78 79 2 623.4 623.4 1246.8 777255.12
382	397500 62 106422 109074 78 79 2 1.9802138867974 2.0006487113424 3.9808625981398 7.9238423036612
383	397562 62 106422 109074 78 79 2 4.1494544947309 5.1866669465606 9.3361214412915 44.119486618387
384	397624 61 106422 109074 78 79 2 3.954930337821 5.8500556864797 9.8049860243007 49.86462551193
385	397685 31 109074 109074 79 79 1 811.64555081703 811.64555081703 811.64555081703 658768.50016108
386	397716 21 109074 109074 79 79 1 423.4 423.4 423.4 179267.56
387	397737 31 109074 109074 79 79 1 1.8951253486588 1.8951253486588 1.8951253486588 3.591500087129
388	397768 31 109074 109074 79 79 1 4.0825695225859 4.0825695225859 4.0825695225859 16.667373906747
389	397799 31 109074 109074 79 79 1 4.1589468862189 4.1589468862189 4.1589468862189 17.29683920239

