version 2
run General-0-20200702-15:18:57-23656
attr configname General
attr datetime 20200702-15:18:57
attr experiment General
attr inifile omnetpp.ini
attr iterationvars ""
attr iterationvarsf ""
attr measurement ""
attr network idc.src.TutorialScenario
attr processid 23656
attr repetition 0
attr replication #0
attr resultdir results
attr runnumber 0
attr seedset 0
param *.playgroundSizeX 1000m
param *.playgroundSizeY 1000m
param *.playgroundSizeZ 50m
param *.manager.updateInterval 0.1s
param *.manager.host "\"localhost\""
param *.manager.port 9999
param *.manager.autoShutdown false
param *.manager.moduleType "\"org.car2x.veins.nodes.Car\""
param *.manager.moduleName "\"node\""
param *.manager.moduleDisplayString "\"\""
param *.manager.launchConfig "xmldoc(\"demo.launchd.xml\")"
param *.connectionManager.pMax 20mW
param *.connectionManager.sat -89dBm
param *.connectionManager.alpha 2.0
param *.connectionManager.carrierFrequency "5.890e9 Hz"
param *.connectionManager.sendDirect true
param *.node[*].nicType "\"Nic80211p\""
param *.**.nic.mac1609_4.txPower 20mW
param *.**.nic.mac1609_4.bitrate 18Mbps
param *.**.nic.phy80211p.sensitivity -89dBm
param *.**.nic.phy80211p.useThermalNoise true
param *.**.nic.phy80211p.thermalNoise -110dBm
param *.**.nic.phy80211p.decider "xmldoc(\"config.xml\")"
param *.**.nic.phy80211p.analogueModels "xmldoc(\"config.xml\")"
param *.**.nic.phy80211p.usePropagationDelay true
param *.node[*].applType "\"idc.src.TutorialAppl\""
param *.node[*].appl.dataPriority 2
param *.node[*].veinsmobilityType "\"org.car2x.veins.modules.mobility.traci.TraCIMobility\""
param *.node[*].veinsmobility.x 0
param *.node[*].veinsmobility.y 0
param *.node[*].veinsmobility.z 0
param **.debug false
param **.coreDebug false

vector 0 TutorialScenario.node[0].veinsmobility posx ETV
vector 1 TutorialScenario.node[0].veinsmobility posy ETV
vector 2 TutorialScenario.node[0].veinsmobility speed ETV
vector 3 TutorialScenario.node[0].veinsmobility acceleration ETV
vector 4 TutorialScenario.node[0].veinsmobility co2emission ETV
vector 5 TutorialScenario.node[1].veinsmobility posx ETV
vector 6 TutorialScenario.node[1].veinsmobility posy ETV
vector 7 TutorialScenario.node[1].veinsmobility speed ETV
vector 8 TutorialScenario.node[1].veinsmobility acceleration ETV
vector 9 TutorialScenario.node[1].veinsmobility co2emission ETV
0	2	0.1	212.7
0	4	0.2	212.7
0	7	0.3	212.67471345755
0	10	0.4	212.62494716264
0	13	0.5	212.55189023013
0	16	0.6	212.45701481638
0	19	0.7	212.33978236621
0	31	0.8	212.2026941987
0	34	0.9	212.04404923114
0	37	1	211.86722630205
0	40	1.1	211.66869971831
0	44	1.2	211.45117346589
0	49	1.3	211.21551182213
0	54	1.4	210.95953881211
0	59	1.5	210.68915885111
0	64	1.6	210.40530650604
0	69	1.7	210.10043890075
1	2	0.1	23.4
1	4	0.2	23.4
1	7	0.3	23.4
1	10	0.4	23.4
1	13	0.5	23.4
1	16	0.6	23.4
1	19	0.7	23.4
1	31	0.8	23.4
1	34	0.9	23.4
1	37	1	23.4
1	40	1.1	23.4
1	44	1.2	23.4
1	49	1.3	23.4
1	54	1.4	23.4
1	59	1.5	23.4
1	64	1.6	23.4
1	69	1.7	23.4
2	4	0.2	0.25286542447004
2	7	0.3	0.49766294917859
2	10	0.4	0.73056932500431
2	13	0.5	0.94875413759194
2	16	0.6	1.1723245016953
2	19	0.7	1.3708816750736
2	31	0.8	1.5864496756212
2	34	0.9	1.7682292908497
2	37	1	1.985265837447
2	40	1.1	2.1752625241973
2	44	1.2	2.3566164375431
2	49	1.3	2.5597301002461
2	54	1.4	2.7037996100177
2	59	1.5	2.8385234506903
2	64	1.6	3.0486760529186
2	69	1.7	3.2057517985729
3	7	0.3	2.4479752470855
3	10	0.4	2.3290637582572
3	13	0.5	2.1818481258762
3	16	0.6	2.2357036410334
3	19	0.7	1.9855717337837
3	31	0.8	2.1556800054752
3	34	0.9	1.8177961522857
3	37	1	2.1703654659723
3	40	1.1	1.8999668675033
3	44	1.2	1.8135391334582
3	49	1.3	2.0311366270296
3	54	1.4	1.4406950977165
3	59	1.5	1.3472384067252
3	64	1.6	2.1015260222834
3	69	1.7	1.5707574565429
4	7	0.3	1.4276208928798
4	10	0.4	1.5553504369406
4	13	0.5	1.6547258140606
4	16	0.6	1.7983555805977
4	19	0.7	1.8323674505787
4	31	0.8	2.0110897446338
4	34	0.9	1.970451684244
4	37	1	2.244901373431
4	40	1.1	2.2119208452933
4	44	1.2	2.2548819012347
4	49	1.3	2.4880286867304
4	54	1.4	2.1810368271913
4	59	1.5	2.1706675736838
4	64	1.6	2.8037419185262
4	69	1.7	2.4812343986551
5	40	1.1	23.4
5	44	1.2	23.4
5	49	1.3	23.4
5	54	1.4	23.4
5	59	1.5	23.4
5	64	1.6	23.4
5	69	1.7	23.4
6	40	1.1	437.3
6	44	1.2	437.3
6	49	1.3	437.32550030378
6	54	1.4	437.37623445143
6	59	1.5	437.45275100799
6	64	1.6	437.55386997533
6	69	1.7	437.67795292788
7	44	1.2	0.2550030377931
7	49	1.3	0.50734147651534
7	54	1.4	0.7651655655888
7	59	1.5	1.0111896733698
7	64	1.6	1.2408295255065
7	69	1.7	1.439883185288
8	49	1.3	2.5233843872225
8	54	1.4	2.5782408907346
8	59	1.5	2.46024107781
8	64	1.6	2.2963985213673
8	69	1.7	1.9905365978143
9	49	1.3	1.4430186485
9	54	1.4	1.6223932285028
9	59	1.5	1.7584279642447
9	64	1.6	1.8567489219402
9	69	1.7	1.8704755222226

