version 2
run General-0-20200729-15:25:38-26184
attr configname General
attr datetime 20200729-15:25:38
attr experiment General
attr inifile omnetpp.ini
attr iterationvars ""
attr iterationvarsf ""
attr measurement ""
attr network sim1.src.TestScenario
attr processid 26184
attr repetition 0
attr replication #0
attr resultdir results
attr runnumber 0
attr seedset 0
param *.playgroundSizeX 1000m
param *.playgroundSizeY 1000m
param *.playgroundSizeZ 50m
param *.manager.moduleType "\"exploited=org.car2x.veins.nodes.Car *=org.car2x.veins.nodes.Car\""
param *.manager.moduleName "\"exploited=exploited *=uninfected\""
param *.manager.updateInterval 1s
param *.manager.host "\"localhost\""
param *.manager.port 9999
param *.manager.autoShutdown true
param *.manager.launchConfig "xmldoc(\"demo.launchd.xml\")"
param *.connectionManager.sendDirect true
param *.connectionManager.maxInterfDist 300m
param *.connectionManager.drawMaxIntfDist false
param *.**.nic.mac1609_4.useServiceChannel false
param *.**.nic.mac1609_4.txPower 20mW
param *.**.nic.mac1609_4.bitrate 6Mbps
param *.**.nic.phy80211p.sensitivity -89dBm
param *.**.nic.phy80211p.useThermalNoise true
param *.**.nic.phy80211p.thermalNoise -110dBm
param *.**.nic.phy80211p.decider "xmldoc(\"config.xml\")"
param *.**.nic.phy80211p.analogueModels "xmldoc(\"config.xml\")"
param *.**.nic.phy80211p.usePropagationDelay true
param *.**.nic.phy80211p.antenna "xmldoc(\"antenna.xml\", \"/root/Antenna[@id='monopole']\")"
param *.uninfected[*].applType "\"sim1.src.Uninfected\""
param *.uninfected[*].appl.dataPriority 2
param *.uninfected[*].appl.headerLength "80 bit"
param *.uninfected[*].appl.sendBeacons false
param *.uninfected[*].appl.dataOnSch false
param *.uninfected[*].appl.beaconInterval 1s
param *.uninfected[*].veinsmobilityType.debug true
param *.uninfected[*].veinsmobility.x 0
param *.uninfected[*].veinsmobility.y 0
param *.uninfected[*].veinsmobility.z 0
param *.exploited[*].applType "\"sim1.src.Exploited\""
param *.exploited[*].appl.dataPriority 2
param *.exploited[*].appl.headerLength "80 bit"
param *.exploited[*].appl.sendBeacons false
param *.exploited[*].appl.dataOnSch false
param *.exploited[*].appl.beaconInterval 1s
param *.exploited[*].veinsmobilityType.debug true
param *.exploited[*].veinsmobility.x 0
param *.exploited[*].veinsmobility.y 0
param *.exploited[*].veinsmobility.z 0

scalar TestScenario.uninfected[23].appl generatedWSMs 9
scalar TestScenario.uninfected[23].appl receivedWSMs 2
scalar TestScenario.uninfected[23].appl generatedBSMs 7
scalar TestScenario.uninfected[23].appl receivedBSMs 2
scalar TestScenario.uninfected[23].appl generatedWSAs 0
scalar TestScenario.uninfected[23].appl receivedWSAs 0
scalar TestScenario.uninfected[23].nic.phy80211p busyTime 0.000651
scalar TestScenario.uninfected[23].nic.mac1609_4 ReceivedUnicastPackets 0
scalar TestScenario.uninfected[23].nic.mac1609_4 ReceivedBroadcasts 4
scalar TestScenario.uninfected[23].nic.mac1609_4 SentPackets 16
scalar TestScenario.uninfected[23].nic.mac1609_4 SentAcknowledgements 0
scalar TestScenario.uninfected[23].nic.mac1609_4 SNIRLostPackets 71
scalar TestScenario.uninfected[23].nic.mac1609_4 RXTXLostPackets 65
scalar TestScenario.uninfected[23].nic.mac1609_4 TotalLostPackets 136
scalar TestScenario.uninfected[23].nic.mac1609_4 DroppedPacketsInMac 0
scalar TestScenario.uninfected[23].nic.mac1609_4 TooLittleTime 0
scalar TestScenario.uninfected[23].nic.mac1609_4 TimesIntoBackoff 16
scalar TestScenario.uninfected[23].nic.mac1609_4 SlotsBackoff 20
scalar TestScenario.uninfected[23].nic.mac1609_4 NumInternalContention 0
scalar TestScenario.uninfected[23].nic.mac1609_4 totalBusyTime 0.006168
scalar TestScenario.uninfected[23].veinsmobility startTime 24
scalar TestScenario.uninfected[23].veinsmobility totalTime 15
scalar TestScenario.uninfected[23].veinsmobility stopTime 40
scalar TestScenario.uninfected[23].veinsmobility minSpeed 4.0277950379694
scalar TestScenario.uninfected[23].veinsmobility maxSpeed 13.878134806112
scalar TestScenario.uninfected[23].veinsmobility totalDistance 172.90740923549
scalar TestScenario.uninfected[23].veinsmobility totalCO2Emission 50.054110153398
scalar TestScenario.uninfected[3].appl generatedWSMs 7
scalar TestScenario.uninfected[3].appl receivedWSMs 9
scalar TestScenario.uninfected[3].appl generatedBSMs 43
scalar TestScenario.uninfected[3].appl receivedBSMs 7
scalar TestScenario.uninfected[3].appl generatedWSAs 0
scalar TestScenario.uninfected[3].appl receivedWSAs 0
scalar TestScenario.uninfected[3].nic.phy80211p busyTime 0.00077833333333333
scalar TestScenario.uninfected[3].nic.mac1609_4 ReceivedUnicastPackets 0
scalar TestScenario.uninfected[3].nic.mac1609_4 ReceivedBroadcasts 16
scalar TestScenario.uninfected[3].nic.mac1609_4 SentPackets 50
scalar TestScenario.uninfected[3].nic.mac1609_4 SentAcknowledgements 0
scalar TestScenario.uninfected[3].nic.mac1609_4 SNIRLostPackets 192
scalar TestScenario.uninfected[3].nic.mac1609_4 RXTXLostPackets 145
scalar TestScenario.uninfected[3].nic.mac1609_4 TotalLostPackets 337
scalar TestScenario.uninfected[3].nic.mac1609_4 DroppedPacketsInMac 0
scalar TestScenario.uninfected[3].nic.mac1609_4 TooLittleTime 0
scalar TestScenario.uninfected[3].nic.mac1609_4 TimesIntoBackoff 50
scalar TestScenario.uninfected[3].nic.mac1609_4 SlotsBackoff 76
scalar TestScenario.uninfected[3].nic.mac1609_4 NumInternalContention 0
scalar TestScenario.uninfected[3].nic.mac1609_4 totalBusyTime 0.017674
scalar TestScenario.uninfected[3].veinsmobility startTime 4
scalar TestScenario.uninfected[3].veinsmobility totalTime 47
scalar TestScenario.uninfected[3].veinsmobility stopTime 52
scalar TestScenario.uninfected[3].veinsmobility minSpeed 4.1837425248161
scalar TestScenario.uninfected[3].veinsmobility maxSpeed 13.888416356484
scalar TestScenario.uninfected[3].veinsmobility totalDistance 570.03630915522
scalar TestScenario.uninfected[3].veinsmobility totalCO2Emission 131.13706836125
scalar TestScenario.uninfected[9].appl generatedWSMs 5
scalar TestScenario.uninfected[9].appl receivedWSMs 9
scalar TestScenario.uninfected[9].appl generatedBSMs 49
scalar TestScenario.uninfected[9].appl receivedBSMs 5
scalar TestScenario.uninfected[9].appl generatedWSAs 0
scalar TestScenario.uninfected[9].appl receivedWSAs 0
scalar TestScenario.uninfected[9].nic.phy80211p busyTime 0.0010344615384615
scalar TestScenario.uninfected[9].nic.mac1609_4 ReceivedUnicastPackets 0
scalar TestScenario.uninfected[9].nic.mac1609_4 ReceivedBroadcasts 14
scalar TestScenario.uninfected[9].nic.mac1609_4 SentPackets 54
scalar TestScenario.uninfected[9].nic.mac1609_4 SentAcknowledgements 0
scalar TestScenario.uninfected[9].nic.mac1609_4 SNIRLostPackets 308
scalar TestScenario.uninfected[9].nic.mac1609_4 RXTXLostPackets 315
scalar TestScenario.uninfected[9].nic.mac1609_4 TotalLostPackets 623
scalar TestScenario.uninfected[9].nic.mac1609_4 DroppedPacketsInMac 0
scalar TestScenario.uninfected[9].nic.mac1609_4 TooLittleTime 0
scalar TestScenario.uninfected[9].nic.mac1609_4 TimesIntoBackoff 54
scalar TestScenario.uninfected[9].nic.mac1609_4 SlotsBackoff 75
scalar TestScenario.uninfected[9].nic.mac1609_4 NumInternalContention 0
scalar TestScenario.uninfected[9].nic.mac1609_4 totalBusyTime 0.02032261771
scalar TestScenario.uninfected[9].veinsmobility startTime 10
scalar TestScenario.uninfected[9].veinsmobility totalTime 51
scalar TestScenario.uninfected[9].veinsmobility stopTime 62
scalar TestScenario.uninfected[9].veinsmobility minSpeed 3.5621496864848
scalar TestScenario.uninfected[9].veinsmobility maxSpeed 13.887274319187
scalar TestScenario.uninfected[9].veinsmobility totalDistance 570.17818401117
scalar TestScenario.uninfected[9].veinsmobility totalCO2Emission 156.80045804416
scalar TestScenario.uninfected[13].appl generatedWSMs 3
scalar TestScenario.uninfected[13].appl receivedWSMs 7
scalar TestScenario.uninfected[13].appl generatedBSMs 47
scalar TestScenario.uninfected[13].appl receivedBSMs 22
scalar TestScenario.uninfected[13].appl generatedWSAs 0
scalar TestScenario.uninfected[13].appl receivedWSAs 0
scalar TestScenario.uninfected[13].nic.phy80211p busyTime 0.00038236734693878
scalar TestScenario.uninfected[13].nic.mac1609_4 ReceivedUnicastPackets 0
scalar TestScenario.uninfected[13].nic.mac1609_4 ReceivedBroadcasts 29
scalar TestScenario.uninfected[13].nic.mac1609_4 SentPackets 50
scalar TestScenario.uninfected[13].nic.mac1609_4 SentAcknowledgements 0
scalar TestScenario.uninfected[13].nic.mac1609_4 SNIRLostPackets 90
scalar TestScenario.uninfected[13].nic.mac1609_4 RXTXLostPackets 87
scalar TestScenario.uninfected[13].nic.mac1609_4 TotalLostPackets 177
scalar TestScenario.uninfected[13].nic.mac1609_4 DroppedPacketsInMac 0
scalar TestScenario.uninfected[13].nic.mac1609_4 TooLittleTime 0
scalar TestScenario.uninfected[13].nic.mac1609_4 TimesIntoBackoff 50
scalar TestScenario.uninfected[13].nic.mac1609_4 SlotsBackoff 98
scalar TestScenario.uninfected[13].nic.mac1609_4 NumInternalContention 0
scalar TestScenario.uninfected[13].nic.mac1609_4 totalBusyTime 0.013610238976
scalar TestScenario.uninfected[13].veinsmobility startTime 14
scalar TestScenario.uninfected[13].veinsmobility totalTime 48
scalar TestScenario.uninfected[13].veinsmobility stopTime 63
scalar TestScenario.uninfected[13].veinsmobility minSpeed 3.8004325452788
scalar TestScenario.uninfected[13].veinsmobility maxSpeed 13.887520042215
scalar TestScenario.uninfected[13].veinsmobility totalDistance 573.11538066424
scalar TestScenario.uninfected[13].veinsmobility totalCO2Emission 133.80654020426
scalar TestScenario.uninfected[0].appl generatedWSMs 39
scalar TestScenario.uninfected[0].appl receivedWSMs 13
scalar TestScenario.uninfected[0].appl generatedBSMs 26
scalar TestScenario.uninfected[0].appl receivedBSMs 12
scalar TestScenario.uninfected[0].appl generatedWSAs 0
scalar TestScenario.uninfected[0].appl receivedWSAs 0
scalar TestScenario.uninfected[0].nic.phy80211p busyTime 0.00029522580645161
scalar TestScenario.uninfected[0].nic.mac1609_4 ReceivedUnicastPackets 0
scalar TestScenario.uninfected[0].nic.mac1609_4 ReceivedBroadcasts 25
scalar TestScenario.uninfected[0].nic.mac1609_4 SentPackets 65
scalar TestScenario.uninfected[0].nic.mac1609_4 SentAcknowledgements 0
scalar TestScenario.uninfected[0].nic.mac1609_4 SNIRLostPackets 100
scalar TestScenario.uninfected[0].nic.mac1609_4 RXTXLostPackets 142
scalar TestScenario.uninfected[0].nic.mac1609_4 TotalLostPackets 242
scalar TestScenario.uninfected[0].nic.mac1609_4 DroppedPacketsInMac 0
scalar TestScenario.uninfected[0].nic.mac1609_4 TooLittleTime 0
scalar TestScenario.uninfected[0].nic.mac1609_4 TimesIntoBackoff 65
scalar TestScenario.uninfected[0].nic.mac1609_4 SlotsBackoff 93
scalar TestScenario.uninfected[0].nic.mac1609_4 NumInternalContention 0
scalar TestScenario.uninfected[0].nic.mac1609_4 totalBusyTime 0.019961
scalar TestScenario.uninfected[0].veinsmobility startTime 1
scalar TestScenario.uninfected[0].veinsmobility totalTime 61
scalar TestScenario.uninfected[0].veinsmobility stopTime 63
scalar TestScenario.uninfected[0].veinsmobility minSpeed 3.722822103166
scalar TestScenario.uninfected[0].veinsmobility maxSpeed 13.882528818171
scalar TestScenario.uninfected[0].veinsmobility totalDistance 764.08034557399
scalar TestScenario.uninfected[0].veinsmobility totalCO2Emission 161.39668434256
scalar TestScenario.uninfected[16].appl generatedWSMs 22
scalar TestScenario.uninfected[16].appl receivedWSMs 5
scalar TestScenario.uninfected[16].appl generatedBSMs 26
scalar TestScenario.uninfected[16].appl receivedBSMs 8
scalar TestScenario.uninfected[16].appl generatedWSAs 0
scalar TestScenario.uninfected[16].appl receivedWSAs 0
scalar TestScenario.uninfected[16].nic.phy80211p busyTime 0.00052983333333333
scalar TestScenario.uninfected[16].nic.mac1609_4 ReceivedUnicastPackets 0
scalar TestScenario.uninfected[16].nic.mac1609_4 ReceivedBroadcasts 13
scalar TestScenario.uninfected[16].nic.mac1609_4 SentPackets 48
scalar TestScenario.uninfected[16].nic.mac1609_4 SentAcknowledgements 0
scalar TestScenario.uninfected[16].nic.mac1609_4 SNIRLostPackets 162
scalar TestScenario.uninfected[16].nic.mac1609_4 RXTXLostPackets 191
scalar TestScenario.uninfected[16].nic.mac1609_4 TotalLostPackets 353
scalar TestScenario.uninfected[16].nic.mac1609_4 DroppedPacketsInMac 0
scalar TestScenario.uninfected[16].nic.mac1609_4 TooLittleTime 0
scalar TestScenario.uninfected[16].nic.mac1609_4 TimesIntoBackoff 48
scalar TestScenario.uninfected[16].nic.mac1609_4 SlotsBackoff 74
scalar TestScenario.uninfected[16].nic.mac1609_4 NumInternalContention 0
scalar TestScenario.uninfected[16].nic.mac1609_4 totalBusyTime 0.017472129084
scalar TestScenario.uninfected[16].veinsmobility startTime 17
scalar TestScenario.uninfected[16].veinsmobility totalTime 47
scalar TestScenario.uninfected[16].veinsmobility stopTime 65
scalar TestScenario.uninfected[16].veinsmobility minSpeed 4.1265234313304
scalar TestScenario.uninfected[16].veinsmobility maxSpeed 13.886215206874
scalar TestScenario.uninfected[16].veinsmobility totalDistance 568.28858012943
scalar TestScenario.uninfected[16].veinsmobility totalCO2Emission 131.91085265231
scalar TestScenario.uninfected[2].appl generatedWSMs 11
scalar TestScenario.uninfected[2].appl receivedWSMs 23
scalar TestScenario.uninfected[2].appl generatedBSMs 60
scalar TestScenario.uninfected[2].appl receivedBSMs 6
scalar TestScenario.uninfected[2].appl generatedWSAs 0
scalar TestScenario.uninfected[2].appl receivedWSAs 0
scalar TestScenario.uninfected[2].nic.phy80211p busyTime 0.00083576470588235
scalar TestScenario.uninfected[2].nic.mac1609_4 ReceivedUnicastPackets 0
scalar TestScenario.uninfected[2].nic.mac1609_4 ReceivedBroadcasts 29
scalar TestScenario.uninfected[2].nic.mac1609_4 SentPackets 71
scalar TestScenario.uninfected[2].nic.mac1609_4 SentAcknowledgements 0
scalar TestScenario.uninfected[2].nic.mac1609_4 SNIRLostPackets 340
scalar TestScenario.uninfected[2].nic.mac1609_4 RXTXLostPackets 308
scalar TestScenario.uninfected[2].nic.mac1609_4 TotalLostPackets 648
scalar TestScenario.uninfected[2].nic.mac1609_4 DroppedPacketsInMac 0
scalar TestScenario.uninfected[2].nic.mac1609_4 TooLittleTime 0
scalar TestScenario.uninfected[2].nic.mac1609_4 TimesIntoBackoff 71
scalar TestScenario.uninfected[2].nic.mac1609_4 SlotsBackoff 103
scalar TestScenario.uninfected[2].nic.mac1609_4 NumInternalContention 0
scalar TestScenario.uninfected[2].nic.mac1609_4 totalBusyTime 0.026599393022
scalar TestScenario.uninfected[2].veinsmobility startTime 3
scalar TestScenario.uninfected[2].veinsmobility totalTime 67
scalar TestScenario.uninfected[2].veinsmobility stopTime 71
scalar TestScenario.uninfected[2].veinsmobility minSpeed 3.3176953228269
scalar TestScenario.uninfected[2].veinsmobility maxSpeed 13.884849982031
scalar TestScenario.uninfected[2].veinsmobility totalDistance 759.67747556447
scalar TestScenario.uninfected[2].veinsmobility totalCO2Emission 205.92781878847
scalar TestScenario.uninfected[5].appl generatedWSMs 6
scalar TestScenario.uninfected[5].appl receivedWSMs 14
scalar TestScenario.uninfected[5].appl generatedBSMs 63
scalar TestScenario.uninfected[5].appl receivedBSMs 8
scalar TestScenario.uninfected[5].appl generatedWSAs 0
scalar TestScenario.uninfected[5].appl receivedWSAs 0
scalar TestScenario.uninfected[5].nic.phy80211p busyTime 0.0008484776119403
scalar TestScenario.uninfected[5].nic.mac1609_4 ReceivedUnicastPackets 0
scalar TestScenario.uninfected[5].nic.mac1609_4 ReceivedBroadcasts 22
scalar TestScenario.uninfected[5].nic.mac1609_4 SentPackets 69
scalar TestScenario.uninfected[5].nic.mac1609_4 SentAcknowledgements 0
scalar TestScenario.uninfected[5].nic.mac1609_4 SNIRLostPackets 328
scalar TestScenario.uninfected[5].nic.mac1609_4 RXTXLostPackets 353
scalar TestScenario.uninfected[5].nic.mac1609_4 TotalLostPackets 681
scalar TestScenario.uninfected[5].nic.mac1609_4 DroppedPacketsInMac 0
scalar TestScenario.uninfected[5].nic.mac1609_4 TooLittleTime 0
scalar TestScenario.uninfected[5].nic.mac1609_4 TimesIntoBackoff 69
scalar TestScenario.uninfected[5].nic.mac1609_4 SlotsBackoff 112
scalar TestScenario.uninfected[5].nic.mac1609_4 NumInternalContention 0
scalar TestScenario.uninfected[5].nic.mac1609_4 totalBusyTime 0.024192086103
scalar TestScenario.uninfected[5].veinsmobility startTime 6
scalar TestScenario.uninfected[5].veinsmobility totalTime 66
scalar TestScenario.uninfected[5].veinsmobility stopTime 73
scalar TestScenario.uninfected[5].veinsmobility minSpeed 3.5229142080061
scalar TestScenario.uninfected[5].veinsmobility maxSpeed 13.885804472454
scalar TestScenario.uninfected[5].veinsmobility totalDistance 757.63362105442
scalar TestScenario.uninfected[5].veinsmobility totalCO2Emission 186.09799576939
scalar TestScenario.uninfected[24].appl generatedWSMs 8
scalar TestScenario.uninfected[24].appl receivedWSMs 11
scalar TestScenario.uninfected[24].appl generatedBSMs 42
scalar TestScenario.uninfected[24].appl receivedBSMs 15
scalar TestScenario.uninfected[24].appl generatedWSAs 0
scalar TestScenario.uninfected[24].appl receivedWSAs 0
scalar TestScenario.uninfected[24].nic.phy80211p busyTime 0.00049028571428571
scalar TestScenario.uninfected[24].nic.mac1609_4 ReceivedUnicastPackets 0
scalar TestScenario.uninfected[24].nic.mac1609_4 ReceivedBroadcasts 26
scalar TestScenario.uninfected[24].nic.mac1609_4 SentPackets 50
scalar TestScenario.uninfected[24].nic.mac1609_4 SentAcknowledgements 0
scalar TestScenario.uninfected[24].nic.mac1609_4 SNIRLostPackets 154
scalar TestScenario.uninfected[24].nic.mac1609_4 RXTXLostPackets 170
scalar TestScenario.uninfected[24].nic.mac1609_4 TotalLostPackets 324
scalar TestScenario.uninfected[24].nic.mac1609_4 DroppedPacketsInMac 0
scalar TestScenario.uninfected[24].nic.mac1609_4 TooLittleTime 0
scalar TestScenario.uninfected[24].nic.mac1609_4 TimesIntoBackoff 50
scalar TestScenario.uninfected[24].nic.mac1609_4 SlotsBackoff 76
scalar TestScenario.uninfected[24].nic.mac1609_4 NumInternalContention 0
scalar TestScenario.uninfected[24].nic.mac1609_4 totalBusyTime 0.015570091866
scalar TestScenario.uninfected[24].veinsmobility startTime 25
scalar TestScenario.uninfected[24].veinsmobility totalTime 48
scalar TestScenario.uninfected[24].veinsmobility stopTime 74
scalar TestScenario.uninfected[24].veinsmobility minSpeed 3.508825753218
scalar TestScenario.uninfected[24].veinsmobility maxSpeed 13.889162013922
scalar TestScenario.uninfected[24].veinsmobility totalDistance 561.88801507621
scalar TestScenario.uninfected[24].veinsmobility totalCO2Emission 133.73762281897
scalar TestScenario.uninfected[8].appl generatedWSMs 3
scalar TestScenario.uninfected[8].appl receivedWSMs 17
scalar TestScenario.uninfected[8].appl generatedBSMs 66
scalar TestScenario.uninfected[8].appl receivedBSMs 13
scalar TestScenario.uninfected[8].appl generatedWSAs 0
scalar TestScenario.uninfected[8].appl receivedWSAs 0
scalar TestScenario.uninfected[8].nic.phy80211p busyTime 0.00069779104477612
scalar TestScenario.uninfected[8].nic.mac1609_4 ReceivedUnicastPackets 0
scalar TestScenario.uninfected[8].nic.mac1609_4 ReceivedBroadcasts 30
scalar TestScenario.uninfected[8].nic.mac1609_4 SentPackets 69
scalar TestScenario.uninfected[8].nic.mac1609_4 SentAcknowledgements 0
scalar TestScenario.uninfected[8].nic.mac1609_4 SNIRLostPackets 258
scalar TestScenario.uninfected[8].nic.mac1609_4 RXTXLostPackets 382
scalar TestScenario.uninfected[8].nic.mac1609_4 TotalLostPackets 640
scalar TestScenario.uninfected[8].nic.mac1609_4 DroppedPacketsInMac 0
scalar TestScenario.uninfected[8].nic.mac1609_4 TooLittleTime 0
scalar TestScenario.uninfected[8].nic.mac1609_4 TimesIntoBackoff 69
scalar TestScenario.uninfected[8].nic.mac1609_4 SlotsBackoff 116
scalar TestScenario.uninfected[8].nic.mac1609_4 NumInternalContention 0
scalar TestScenario.uninfected[8].nic.mac1609_4 totalBusyTime 0.023789768831
scalar TestScenario.uninfected[8].veinsmobility startTime 9
scalar TestScenario.uninfected[8].veinsmobility totalTime 66
scalar TestScenario.uninfected[8].veinsmobility stopTime 76
scalar TestScenario.uninfected[8].veinsmobility minSpeed 3.587650280724
scalar TestScenario.uninfected[8].veinsmobility maxSpeed 13.88813461059
scalar TestScenario.uninfected[8].veinsmobility totalDistance 772.27620161273
scalar TestScenario.uninfected[8].veinsmobility totalCO2Emission 187.71288692099
scalar TestScenario.uninfected[12].appl generatedWSMs 12
scalar TestScenario.uninfected[12].appl receivedWSMs 12
scalar TestScenario.uninfected[12].appl generatedBSMs 54
scalar TestScenario.uninfected[12].appl receivedBSMs 7
scalar TestScenario.uninfected[12].appl generatedWSAs 0
scalar TestScenario.uninfected[12].appl receivedWSAs 0
scalar TestScenario.uninfected[12].nic.phy80211p busyTime 0.001088126984127
scalar TestScenario.uninfected[12].nic.mac1609_4 ReceivedUnicastPackets 0
scalar TestScenario.uninfected[12].nic.mac1609_4 ReceivedBroadcasts 19
scalar TestScenario.uninfected[12].nic.mac1609_4 SentPackets 66
scalar TestScenario.uninfected[12].nic.mac1609_4 SentAcknowledgements 0
scalar TestScenario.uninfected[12].nic.mac1609_4 SNIRLostPackets 378
scalar TestScenario.uninfected[12].nic.mac1609_4 RXTXLostPackets 433
scalar TestScenario.uninfected[12].nic.mac1609_4 TotalLostPackets 811
scalar TestScenario.uninfected[12].nic.mac1609_4 DroppedPacketsInMac 0
scalar TestScenario.uninfected[12].nic.mac1609_4 TooLittleTime 0
scalar TestScenario.uninfected[12].nic.mac1609_4 TimesIntoBackoff 66
scalar TestScenario.uninfected[12].nic.mac1609_4 SlotsBackoff 105
scalar TestScenario.uninfected[12].nic.mac1609_4 NumInternalContention 0
scalar TestScenario.uninfected[12].nic.mac1609_4 totalBusyTime 0.023440076582
scalar TestScenario.uninfected[12].veinsmobility startTime 13
scalar TestScenario.uninfected[12].veinsmobility totalTime 62
scalar TestScenario.uninfected[12].veinsmobility stopTime 76
scalar TestScenario.uninfected[12].veinsmobility minSpeed 3.3958605258411
scalar TestScenario.uninfected[12].veinsmobility maxSpeed 13.888971277256
scalar TestScenario.uninfected[12].veinsmobility totalDistance 776.26632121239
scalar TestScenario.uninfected[12].veinsmobility totalCO2Emission 163.58713809215
scalar TestScenario.uninfected[7].appl generatedWSMs 4
scalar TestScenario.uninfected[7].appl receivedWSMs 13
scalar TestScenario.uninfected[7].appl generatedBSMs 67
scalar TestScenario.uninfected[7].appl receivedBSMs 13
scalar TestScenario.uninfected[7].appl generatedWSAs 0
scalar TestScenario.uninfected[7].appl receivedWSAs 0
scalar TestScenario.uninfected[7].nic.phy80211p busyTime 0.0011254117647059
scalar TestScenario.uninfected[7].nic.mac1609_4 ReceivedUnicastPackets 0
scalar TestScenario.uninfected[7].nic.mac1609_4 ReceivedBroadcasts 26
scalar TestScenario.uninfected[7].nic.mac1609_4 SentPackets 71
scalar TestScenario.uninfected[7].nic.mac1609_4 SentAcknowledgements 0
scalar TestScenario.uninfected[7].nic.mac1609_4 SNIRLostPackets 472
scalar TestScenario.uninfected[7].nic.mac1609_4 RXTXLostPackets 489
scalar TestScenario.uninfected[7].nic.mac1609_4 TotalLostPackets 961
scalar TestScenario.uninfected[7].nic.mac1609_4 DroppedPacketsInMac 0
scalar TestScenario.uninfected[7].nic.mac1609_4 TooLittleTime 0
scalar TestScenario.uninfected[7].nic.mac1609_4 TimesIntoBackoff 71
scalar TestScenario.uninfected[7].nic.mac1609_4 SlotsBackoff 102
scalar TestScenario.uninfected[7].nic.mac1609_4 NumInternalContention 0
scalar TestScenario.uninfected[7].nic.mac1609_4 totalBusyTime 0.025790721604
scalar TestScenario.uninfected[7].veinsmobility startTime 8
scalar TestScenario.uninfected[7].veinsmobility totalTime 67
scalar TestScenario.uninfected[7].veinsmobility stopTime 76
scalar TestScenario.uninfected[7].veinsmobility minSpeed 3.6270036264462
scalar TestScenario.uninfected[7].veinsmobility maxSpeed 13.889763465817
scalar TestScenario.uninfected[7].veinsmobility totalDistance 753.29753211441
scalar TestScenario.uninfected[7].veinsmobility totalCO2Emission 203.03655714509
scalar TestScenario.uninfected[11].appl generatedWSMs 7
scalar TestScenario.uninfected[11].appl receivedWSMs 16
scalar TestScenario.uninfected[11].appl generatedBSMs 64
scalar TestScenario.uninfected[11].appl receivedBSMs 11
scalar TestScenario.uninfected[11].appl generatedWSAs 0
scalar TestScenario.uninfected[11].appl receivedWSAs 0
scalar TestScenario.uninfected[11].nic.phy80211p busyTime 0.0007552
scalar TestScenario.uninfected[11].nic.mac1609_4 ReceivedUnicastPackets 0
scalar TestScenario.uninfected[11].nic.mac1609_4 ReceivedBroadcasts 27
scalar TestScenario.uninfected[11].nic.mac1609_4 SentPackets 71
scalar TestScenario.uninfected[11].nic.mac1609_4 SentAcknowledgements 0
scalar TestScenario.uninfected[11].nic.mac1609_4 SNIRLostPackets 343
scalar TestScenario.uninfected[11].nic.mac1609_4 RXTXLostPackets 417
scalar TestScenario.uninfected[11].nic.mac1609_4 TotalLostPackets 760
scalar TestScenario.uninfected[11].nic.mac1609_4 DroppedPacketsInMac 0
scalar TestScenario.uninfected[11].nic.mac1609_4 TooLittleTime 0
scalar TestScenario.uninfected[11].nic.mac1609_4 TimesIntoBackoff 71
scalar TestScenario.uninfected[11].nic.mac1609_4 SlotsBackoff 94
scalar TestScenario.uninfected[11].nic.mac1609_4 NumInternalContention 0
scalar TestScenario.uninfected[11].nic.mac1609_4 totalBusyTime 0.024060878701
scalar TestScenario.uninfected[11].veinsmobility startTime 12
scalar TestScenario.uninfected[11].veinsmobility totalTime 64
scalar TestScenario.uninfected[11].veinsmobility stopTime 77
scalar TestScenario.uninfected[11].veinsmobility minSpeed 3.5885107131671
scalar TestScenario.uninfected[11].veinsmobility maxSpeed 13.888562554053
scalar TestScenario.uninfected[11].veinsmobility totalDistance 753.82826434479
scalar TestScenario.uninfected[11].veinsmobility totalCO2Emission 180.79267418395
scalar TestScenario.uninfected[10].appl generatedWSMs 18
scalar TestScenario.uninfected[10].appl receivedWSMs 10
scalar TestScenario.uninfected[10].appl generatedBSMs 52
scalar TestScenario.uninfected[10].appl receivedBSMs 6
scalar TestScenario.uninfected[10].appl generatedWSAs 0
scalar TestScenario.uninfected[10].appl receivedWSAs 0
scalar TestScenario.uninfected[10].nic.phy80211p busyTime 0.0010469714285714
scalar TestScenario.uninfected[10].nic.mac1609_4 ReceivedUnicastPackets 0
scalar TestScenario.uninfected[10].nic.mac1609_4 ReceivedBroadcasts 16
scalar TestScenario.uninfected[10].nic.mac1609_4 SentPackets 70
scalar TestScenario.uninfected[10].nic.mac1609_4 SentAcknowledgements 0
scalar TestScenario.uninfected[10].nic.mac1609_4 SNIRLostPackets 473
scalar TestScenario.uninfected[10].nic.mac1609_4 RXTXLostPackets 516
scalar TestScenario.uninfected[10].nic.mac1609_4 TotalLostPackets 989
scalar TestScenario.uninfected[10].nic.mac1609_4 DroppedPacketsInMac 0
scalar TestScenario.uninfected[10].nic.mac1609_4 TooLittleTime 0
scalar TestScenario.uninfected[10].nic.mac1609_4 TimesIntoBackoff 70
scalar TestScenario.uninfected[10].nic.mac1609_4 SlotsBackoff 103
scalar TestScenario.uninfected[10].nic.mac1609_4 NumInternalContention 0
scalar TestScenario.uninfected[10].nic.mac1609_4 totalBusyTime 0.026879727255
scalar TestScenario.uninfected[10].veinsmobility startTime 11
scalar TestScenario.uninfected[10].veinsmobility totalTime 69
scalar TestScenario.uninfected[10].veinsmobility stopTime 81
scalar TestScenario.uninfected[10].veinsmobility minSpeed 3.4118622156925
scalar TestScenario.uninfected[10].veinsmobility maxSpeed 13.88011962451
scalar TestScenario.uninfected[10].veinsmobility totalDistance 765.5538480836
scalar TestScenario.uninfected[10].veinsmobility totalCO2Emission 211.47295017966
scalar TestScenario.uninfected[4].appl generatedWSMs 11
scalar TestScenario.uninfected[4].appl receivedWSMs 19
scalar TestScenario.uninfected[4].appl generatedBSMs 71
scalar TestScenario.uninfected[4].appl receivedBSMs 13
scalar TestScenario.uninfected[4].appl generatedWSAs 0
scalar TestScenario.uninfected[4].appl receivedWSAs 0
scalar TestScenario.uninfected[4].nic.phy80211p busyTime 0.0011392405063291
scalar TestScenario.uninfected[4].nic.mac1609_4 ReceivedUnicastPackets 0
scalar TestScenario.uninfected[4].nic.mac1609_4 ReceivedBroadcasts 32
scalar TestScenario.uninfected[4].nic.mac1609_4 SentPackets 82
scalar TestScenario.uninfected[4].nic.mac1609_4 SentAcknowledgements 0
scalar TestScenario.uninfected[4].nic.mac1609_4 SNIRLostPackets 593
scalar TestScenario.uninfected[4].nic.mac1609_4 RXTXLostPackets 601
scalar TestScenario.uninfected[4].nic.mac1609_4 TotalLostPackets 1194
scalar TestScenario.uninfected[4].nic.mac1609_4 DroppedPacketsInMac 0
scalar TestScenario.uninfected[4].nic.mac1609_4 TooLittleTime 0
scalar TestScenario.uninfected[4].nic.mac1609_4 TimesIntoBackoff 82
scalar TestScenario.uninfected[4].nic.mac1609_4 SlotsBackoff 131
scalar TestScenario.uninfected[4].nic.mac1609_4 NumInternalContention 0
scalar TestScenario.uninfected[4].nic.mac1609_4 totalBusyTime 0.032121860165
scalar TestScenario.uninfected[4].veinsmobility startTime 5
scalar TestScenario.uninfected[4].veinsmobility totalTime 78
scalar TestScenario.uninfected[4].veinsmobility stopTime 84
scalar TestScenario.uninfected[4].veinsmobility minSpeed 3.9686554428826
scalar TestScenario.uninfected[4].veinsmobility maxSpeed 13.887086931765
scalar TestScenario.uninfected[4].veinsmobility totalDistance 958.80702024337
scalar TestScenario.uninfected[4].veinsmobility totalCO2Emission 210.59555057945
scalar TestScenario.uninfected[18].appl generatedWSMs 3
scalar TestScenario.uninfected[18].appl receivedWSMs 19
scalar TestScenario.uninfected[18].appl generatedBSMs 62
scalar TestScenario.uninfected[18].appl receivedBSMs 12
scalar TestScenario.uninfected[18].appl generatedWSAs 0
scalar TestScenario.uninfected[18].appl receivedWSAs 0
scalar TestScenario.uninfected[18].nic.phy80211p busyTime 0.0010541538461538
scalar TestScenario.uninfected[18].nic.mac1609_4 ReceivedUnicastPackets 0
scalar TestScenario.uninfected[18].nic.mac1609_4 ReceivedBroadcasts 31
scalar TestScenario.uninfected[18].nic.mac1609_4 SentPackets 65
scalar TestScenario.uninfected[18].nic.mac1609_4 SentAcknowledgements 0
scalar TestScenario.uninfected[18].nic.mac1609_4 SNIRLostPackets 460
scalar TestScenario.uninfected[18].nic.mac1609_4 RXTXLostPackets 466
scalar TestScenario.uninfected[18].nic.mac1609_4 TotalLostPackets 926
scalar TestScenario.uninfected[18].nic.mac1609_4 DroppedPacketsInMac 0
scalar TestScenario.uninfected[18].nic.mac1609_4 TooLittleTime 0
scalar TestScenario.uninfected[18].nic.mac1609_4 TimesIntoBackoff 65
scalar TestScenario.uninfected[18].nic.mac1609_4 SlotsBackoff 98
scalar TestScenario.uninfected[18].nic.mac1609_4 NumInternalContention 0
scalar TestScenario.uninfected[18].nic.mac1609_4 totalBusyTime 0.023834209811
scalar TestScenario.uninfected[18].veinsmobility startTime 19
scalar TestScenario.uninfected[18].veinsmobility totalTime 64
scalar TestScenario.uninfected[18].veinsmobility stopTime 84
scalar TestScenario.uninfected[18].veinsmobility minSpeed 3.6172514760634
scalar TestScenario.uninfected[18].veinsmobility maxSpeed 13.882746335675
scalar TestScenario.uninfected[18].veinsmobility totalDistance 750.61630845615
scalar TestScenario.uninfected[18].veinsmobility totalCO2Emission 180.99002325832
scalar TestScenario.uninfected[68].appl generatedWSMs 13
scalar TestScenario.uninfected[68].appl receivedWSMs 4
scalar TestScenario.uninfected[68].appl generatedBSMs 4
scalar TestScenario.uninfected[68].appl receivedBSMs 6
scalar TestScenario.uninfected[68].appl generatedWSAs 0
scalar TestScenario.uninfected[68].appl receivedWSAs 0
scalar TestScenario.uninfected[68].nic.phy80211p busyTime 0.000507
scalar TestScenario.uninfected[68].nic.mac1609_4 ReceivedUnicastPackets 0
scalar TestScenario.uninfected[68].nic.mac1609_4 ReceivedBroadcasts 10
scalar TestScenario.uninfected[68].nic.mac1609_4 SentPackets 17
scalar TestScenario.uninfected[68].nic.mac1609_4 SentAcknowledgements 0
scalar TestScenario.uninfected[68].nic.mac1609_4 SNIRLostPackets 47
scalar TestScenario.uninfected[68].nic.mac1609_4 RXTXLostPackets 108
scalar TestScenario.uninfected[68].nic.mac1609_4 TotalLostPackets 155
scalar TestScenario.uninfected[68].nic.mac1609_4 DroppedPacketsInMac 0
scalar TestScenario.uninfected[68].nic.mac1609_4 TooLittleTime 0
scalar TestScenario.uninfected[68].nic.mac1609_4 TimesIntoBackoff 17
scalar TestScenario.uninfected[68].nic.mac1609_4 SlotsBackoff 16
scalar TestScenario.uninfected[68].nic.mac1609_4 NumInternalContention 0
scalar TestScenario.uninfected[68].nic.mac1609_4 totalBusyTime 0.006529
scalar TestScenario.uninfected[68].veinsmobility startTime 69
scalar TestScenario.uninfected[68].veinsmobility totalTime 15
scalar TestScenario.uninfected[68].veinsmobility stopTime 85
scalar TestScenario.uninfected[68].veinsmobility minSpeed 4.1589218131204
scalar TestScenario.uninfected[68].veinsmobility maxSpeed 13.871521093801
scalar TestScenario.uninfected[68].veinsmobility totalDistance 172.9159166832
scalar TestScenario.uninfected[68].veinsmobility totalCO2Emission 49.881098415015
scalar TestScenario.uninfected[14].appl generatedWSMs 3
scalar TestScenario.uninfected[14].appl receivedWSMs 23
scalar TestScenario.uninfected[14].appl generatedBSMs 69
scalar TestScenario.uninfected[14].appl receivedBSMs 18
scalar TestScenario.uninfected[14].appl generatedWSAs 0
scalar TestScenario.uninfected[14].appl receivedWSAs 0
scalar TestScenario.uninfected[14].nic.phy80211p busyTime 0.00094011428571429
scalar TestScenario.uninfected[14].nic.mac1609_4 ReceivedUnicastPackets 0
scalar TestScenario.uninfected[14].nic.mac1609_4 ReceivedBroadcasts 41
scalar TestScenario.uninfected[14].nic.mac1609_4 SentPackets 72
scalar TestScenario.uninfected[14].nic.mac1609_4 SentAcknowledgements 0
scalar TestScenario.uninfected[14].nic.mac1609_4 SNIRLostPackets 434
scalar TestScenario.uninfected[14].nic.mac1609_4 RXTXLostPackets 509
scalar TestScenario.uninfected[14].nic.mac1609_4 TotalLostPackets 943
scalar TestScenario.uninfected[14].nic.mac1609_4 DroppedPacketsInMac 0
scalar TestScenario.uninfected[14].nic.mac1609_4 TooLittleTime 0
scalar TestScenario.uninfected[14].nic.mac1609_4 TimesIntoBackoff 72
scalar TestScenario.uninfected[14].nic.mac1609_4 SlotsBackoff 95
scalar TestScenario.uninfected[14].nic.mac1609_4 NumInternalContention 0
scalar TestScenario.uninfected[14].nic.mac1609_4 totalBusyTime 0.027020767573
scalar TestScenario.uninfected[14].veinsmobility startTime 15
scalar TestScenario.uninfected[14].veinsmobility totalTime 69
scalar TestScenario.uninfected[14].veinsmobility stopTime 85
scalar TestScenario.uninfected[14].veinsmobility minSpeed 2.8476165352548
scalar TestScenario.uninfected[14].veinsmobility maxSpeed 13.889966999968
scalar TestScenario.uninfected[14].veinsmobility totalDistance 755.49627106568
scalar TestScenario.uninfected[14].veinsmobility totalCO2Emission 206.11162935021
scalar TestScenario.uninfected[22].appl generatedWSMs 11
scalar TestScenario.uninfected[22].appl receivedWSMs 7
scalar TestScenario.uninfected[22].appl generatedBSMs 54
scalar TestScenario.uninfected[22].appl receivedBSMs 8
scalar TestScenario.uninfected[22].appl generatedWSAs 0
scalar TestScenario.uninfected[22].appl receivedWSAs 0
scalar TestScenario.uninfected[22].nic.phy80211p busyTime 0.0013155
scalar TestScenario.uninfected[22].nic.mac1609_4 ReceivedUnicastPackets 0
scalar TestScenario.uninfected[22].nic.mac1609_4 ReceivedBroadcasts 15
scalar TestScenario.uninfected[22].nic.mac1609_4 SentPackets 65
scalar TestScenario.uninfected[22].nic.mac1609_4 SentAcknowledgements 0
scalar TestScenario.uninfected[22].nic.mac1609_4 SNIRLostPackets 537
scalar TestScenario.uninfected[22].nic.mac1609_4 RXTXLostPackets 636
scalar TestScenario.uninfected[22].nic.mac1609_4 TotalLostPackets 1173
scalar TestScenario.uninfected[22].nic.mac1609_4 DroppedPacketsInMac 0
scalar TestScenario.uninfected[22].nic.mac1609_4 TooLittleTime 0
scalar TestScenario.uninfected[22].nic.mac1609_4 TimesIntoBackoff 65
scalar TestScenario.uninfected[22].nic.mac1609_4 SlotsBackoff 117
scalar TestScenario.uninfected[22].nic.mac1609_4 NumInternalContention 0
scalar TestScenario.uninfected[22].nic.mac1609_4 totalBusyTime 0.024190649002
scalar TestScenario.uninfected[22].veinsmobility startTime 23
scalar TestScenario.uninfected[22].veinsmobility totalTime 63
scalar TestScenario.uninfected[22].veinsmobility stopTime 87
scalar TestScenario.uninfected[22].veinsmobility minSpeed 0
scalar TestScenario.uninfected[22].veinsmobility maxSpeed 13.889673733534
scalar TestScenario.uninfected[22].veinsmobility totalDistance 567.35038997408
scalar TestScenario.uninfected[22].veinsmobility totalCO2Emission 173.96261866652
scalar TestScenario.uninfected[35].appl generatedWSMs 28
scalar TestScenario.uninfected[35].appl receivedWSMs 6
scalar TestScenario.uninfected[35].appl generatedBSMs 25
scalar TestScenario.uninfected[35].appl receivedBSMs 7
scalar TestScenario.uninfected[35].appl generatedWSAs 0
scalar TestScenario.uninfected[35].appl receivedWSAs 0
scalar TestScenario.uninfected[35].nic.phy80211p busyTime 0.0013284528301887
scalar TestScenario.uninfected[35].nic.mac1609_4 ReceivedUnicastPackets 0
scalar TestScenario.uninfected[35].nic.mac1609_4 ReceivedBroadcasts 13
scalar TestScenario.uninfected[35].nic.mac1609_4 SentPackets 53
scalar TestScenario.uninfected[35].nic.mac1609_4 SentAcknowledgements 0
scalar TestScenario.uninfected[35].nic.mac1609_4 SNIRLostPackets 479
scalar TestScenario.uninfected[35].nic.mac1609_4 RXTXLostPackets 614
scalar TestScenario.uninfected[35].nic.mac1609_4 TotalLostPackets 1093
scalar TestScenario.uninfected[35].nic.mac1609_4 DroppedPacketsInMac 0
scalar TestScenario.uninfected[35].nic.mac1609_4 TooLittleTime 0
scalar TestScenario.uninfected[35].nic.mac1609_4 TimesIntoBackoff 53
scalar TestScenario.uninfected[35].nic.mac1609_4 SlotsBackoff 98
scalar TestScenario.uninfected[35].nic.mac1609_4 NumInternalContention 0
scalar TestScenario.uninfected[35].nic.mac1609_4 totalBusyTime 0.020448914174
scalar TestScenario.uninfected[35].veinsmobility startTime 36
scalar TestScenario.uninfected[35].veinsmobility totalTime 52
scalar TestScenario.uninfected[35].veinsmobility stopTime 89
scalar TestScenario.uninfected[35].veinsmobility minSpeed 3.5594781276956
scalar TestScenario.uninfected[35].veinsmobility maxSpeed 13.889759708501
scalar TestScenario.uninfected[35].veinsmobility totalDistance 567.47128642988
scalar TestScenario.uninfected[35].veinsmobility totalCO2Emission 158.43609658089
scalar TestScenario.uninfected[21].appl generatedWSMs 16
scalar TestScenario.uninfected[21].appl receivedWSMs 10
scalar TestScenario.uninfected[21].appl generatedBSMs 52
scalar TestScenario.uninfected[21].appl receivedBSMs 13
scalar TestScenario.uninfected[21].appl generatedWSAs 0
scalar TestScenario.uninfected[21].appl receivedWSAs 0
scalar TestScenario.uninfected[21].nic.phy80211p busyTime 0.00073444776119403
scalar TestScenario.uninfected[21].nic.mac1609_4 ReceivedUnicastPackets 0
scalar TestScenario.uninfected[21].nic.mac1609_4 ReceivedBroadcasts 23
scalar TestScenario.uninfected[21].nic.mac1609_4 SentPackets 68
scalar TestScenario.uninfected[21].nic.mac1609_4 SentAcknowledgements 0
scalar TestScenario.uninfected[21].nic.mac1609_4 SNIRLostPackets 303
scalar TestScenario.uninfected[21].nic.mac1609_4 RXTXLostPackets 407
scalar TestScenario.uninfected[21].nic.mac1609_4 TotalLostPackets 710
scalar TestScenario.uninfected[21].nic.mac1609_4 DroppedPacketsInMac 0
scalar TestScenario.uninfected[21].nic.mac1609_4 TooLittleTime 0
scalar TestScenario.uninfected[21].nic.mac1609_4 TimesIntoBackoff 68
scalar TestScenario.uninfected[21].nic.mac1609_4 SlotsBackoff 99
scalar TestScenario.uninfected[21].nic.mac1609_4 NumInternalContention 0
scalar TestScenario.uninfected[21].nic.mac1609_4 totalBusyTime 0.023932754219
scalar TestScenario.uninfected[21].veinsmobility startTime 22
scalar TestScenario.uninfected[21].veinsmobility totalTime 66
scalar TestScenario.uninfected[21].veinsmobility stopTime 89
scalar TestScenario.uninfected[21].veinsmobility minSpeed 3.6123074032807
scalar TestScenario.uninfected[21].veinsmobility maxSpeed 13.889256575068
scalar TestScenario.uninfected[21].veinsmobility totalDistance 770.80067776082
scalar TestScenario.uninfected[21].veinsmobility totalCO2Emission 187.7866782093
scalar TestScenario.uninfected[76].appl generatedWSMs 14
scalar TestScenario.uninfected[76].appl receivedWSMs 2
scalar TestScenario.uninfected[76].appl generatedBSMs 2
scalar TestScenario.uninfected[76].appl receivedBSMs 3
scalar TestScenario.uninfected[76].appl generatedWSAs 0
scalar TestScenario.uninfected[76].appl receivedWSAs 0
scalar TestScenario.uninfected[76].nic.phy80211p busyTime 0.0005125
scalar TestScenario.uninfected[76].nic.mac1609_4 ReceivedUnicastPackets 0
scalar TestScenario.uninfected[76].nic.mac1609_4 ReceivedBroadcasts 5
scalar TestScenario.uninfected[76].nic.mac1609_4 SentPackets 16
scalar TestScenario.uninfected[76].nic.mac1609_4 SentAcknowledgements 0
scalar TestScenario.uninfected[76].nic.mac1609_4 SNIRLostPackets 64
scalar TestScenario.uninfected[76].nic.mac1609_4 RXTXLostPackets 73
scalar TestScenario.uninfected[76].nic.mac1609_4 TotalLostPackets 137
scalar TestScenario.uninfected[76].nic.mac1609_4 DroppedPacketsInMac 0
scalar TestScenario.uninfected[76].nic.mac1609_4 TooLittleTime 0
scalar TestScenario.uninfected[76].nic.mac1609_4 TimesIntoBackoff 16
scalar TestScenario.uninfected[76].nic.mac1609_4 SlotsBackoff 25
scalar TestScenario.uninfected[76].nic.mac1609_4 NumInternalContention 0
scalar TestScenario.uninfected[76].nic.mac1609_4 totalBusyTime 0.006008
scalar TestScenario.uninfected[76].veinsmobility startTime 77
scalar TestScenario.uninfected[76].veinsmobility totalTime 15
scalar TestScenario.uninfected[76].veinsmobility stopTime 93
scalar TestScenario.uninfected[76].veinsmobility minSpeed 4.2135263395485
scalar TestScenario.uninfected[76].veinsmobility maxSpeed 13.841948049047
scalar TestScenario.uninfected[76].veinsmobility totalDistance 172.63179622138
scalar TestScenario.uninfected[76].veinsmobility totalCO2Emission 49.766540665204
scalar TestScenario.uninfected[42].appl generatedWSMs 2
scalar TestScenario.uninfected[42].appl receivedWSMs 4
scalar TestScenario.uninfected[42].appl generatedBSMs 50
scalar TestScenario.uninfected[42].appl receivedBSMs 7
scalar TestScenario.uninfected[42].appl generatedWSAs 0
scalar TestScenario.uninfected[42].appl receivedWSAs 0
scalar TestScenario.uninfected[42].nic.phy80211p busyTime 0.0013775384615385
scalar TestScenario.uninfected[42].nic.mac1609_4 ReceivedUnicastPackets 0
scalar TestScenario.uninfected[42].nic.mac1609_4 ReceivedBroadcasts 11
scalar TestScenario.uninfected[42].nic.mac1609_4 SentPackets 52
scalar TestScenario.uninfected[42].nic.mac1609_4 SentAcknowledgements 0
scalar TestScenario.uninfected[42].nic.mac1609_4 SNIRLostPackets 505
scalar TestScenario.uninfected[42].nic.mac1609_4 RXTXLostPackets 536
scalar TestScenario.uninfected[42].nic.mac1609_4 TotalLostPackets 1041
scalar TestScenario.uninfected[42].nic.mac1609_4 DroppedPacketsInMac 0
scalar TestScenario.uninfected[42].nic.mac1609_4 TooLittleTime 0
scalar TestScenario.uninfected[42].nic.mac1609_4 TimesIntoBackoff 52
scalar TestScenario.uninfected[42].nic.mac1609_4 SlotsBackoff 77
scalar TestScenario.uninfected[42].nic.mac1609_4 NumInternalContention 0
scalar TestScenario.uninfected[42].nic.mac1609_4 totalBusyTime 0.019288166412
scalar TestScenario.uninfected[42].veinsmobility startTime 43
scalar TestScenario.uninfected[42].veinsmobility totalTime 51
scalar TestScenario.uninfected[42].veinsmobility stopTime 95
scalar TestScenario.uninfected[42].veinsmobility minSpeed 3.2629094730085
scalar TestScenario.uninfected[42].veinsmobility maxSpeed 13.888142702524
scalar TestScenario.uninfected[42].veinsmobility totalDistance 570.26376467694
scalar TestScenario.uninfected[42].veinsmobility totalCO2Emission 157.62005732129
scalar TestScenario.uninfected[26].appl generatedWSMs 7
scalar TestScenario.uninfected[26].appl receivedWSMs 11
scalar TestScenario.uninfected[26].appl generatedBSMs 69
scalar TestScenario.uninfected[26].appl receivedBSMs 9
scalar TestScenario.uninfected[26].appl generatedWSAs 0
scalar TestScenario.uninfected[26].appl receivedWSAs 0
scalar TestScenario.uninfected[26].nic.phy80211p busyTime 0.0014709333333334
scalar TestScenario.uninfected[26].nic.mac1609_4 ReceivedUnicastPackets 0
scalar TestScenario.uninfected[26].nic.mac1609_4 ReceivedBroadcasts 20
scalar TestScenario.uninfected[26].nic.mac1609_4 SentPackets 76
scalar TestScenario.uninfected[26].nic.mac1609_4 SentAcknowledgements 0
scalar TestScenario.uninfected[26].nic.mac1609_4 SNIRLostPackets 776
scalar TestScenario.uninfected[26].nic.mac1609_4 RXTXLostPackets 867
scalar TestScenario.uninfected[26].nic.mac1609_4 TotalLostPackets 1643
scalar TestScenario.uninfected[26].nic.mac1609_4 DroppedPacketsInMac 0
scalar TestScenario.uninfected[26].nic.mac1609_4 TooLittleTime 0
scalar TestScenario.uninfected[26].nic.mac1609_4 TimesIntoBackoff 76
scalar TestScenario.uninfected[26].nic.mac1609_4 SlotsBackoff 122
scalar TestScenario.uninfected[26].nic.mac1609_4 NumInternalContention 0
scalar TestScenario.uninfected[26].nic.mac1609_4 totalBusyTime 0.029384219859
scalar TestScenario.uninfected[26].veinsmobility startTime 27
scalar TestScenario.uninfected[26].veinsmobility totalTime 74
scalar TestScenario.uninfected[26].veinsmobility stopTime 102
scalar TestScenario.uninfected[26].veinsmobility minSpeed 0.2563562358446
scalar TestScenario.uninfected[26].veinsmobility maxSpeed 13.887866197138
scalar TestScenario.uninfected[26].veinsmobility totalDistance 761.42008270366
scalar TestScenario.uninfected[26].veinsmobility totalCO2Emission 209.62075388962
scalar TestScenario.uninfected[20].appl generatedWSMs 1
scalar TestScenario.uninfected[20].appl receivedWSMs 9
scalar TestScenario.uninfected[20].appl generatedBSMs 83
scalar TestScenario.uninfected[20].appl receivedBSMs 19
scalar TestScenario.uninfected[20].appl generatedWSAs 0
scalar TestScenario.uninfected[20].appl receivedWSAs 0
scalar TestScenario.uninfected[20].nic.phy80211p busyTime 0.0010513333333333
scalar TestScenario.uninfected[20].nic.mac1609_4 ReceivedUnicastPackets 0
scalar TestScenario.uninfected[20].nic.mac1609_4 ReceivedBroadcasts 28
scalar TestScenario.uninfected[20].nic.mac1609_4 SentPackets 84
scalar TestScenario.uninfected[20].nic.mac1609_4 SentAcknowledgements 0
scalar TestScenario.uninfected[20].nic.mac1609_4 SNIRLostPackets 601
scalar TestScenario.uninfected[20].nic.mac1609_4 RXTXLostPackets 634
scalar TestScenario.uninfected[20].nic.mac1609_4 TotalLostPackets 1235
scalar TestScenario.uninfected[20].nic.mac1609_4 DroppedPacketsInMac 0
scalar TestScenario.uninfected[20].nic.mac1609_4 TooLittleTime 0
scalar TestScenario.uninfected[20].nic.mac1609_4 TimesIntoBackoff 84
scalar TestScenario.uninfected[20].nic.mac1609_4 SlotsBackoff 148
scalar TestScenario.uninfected[20].nic.mac1609_4 NumInternalContention 0
scalar TestScenario.uninfected[20].nic.mac1609_4 totalBusyTime 0.028741930661
scalar TestScenario.uninfected[20].veinsmobility startTime 21
scalar TestScenario.uninfected[20].veinsmobility totalTime 83
scalar TestScenario.uninfected[20].veinsmobility stopTime 105
scalar TestScenario.uninfected[20].veinsmobility minSpeed 3.3416818298807
scalar TestScenario.uninfected[20].veinsmobility maxSpeed 13.885193817336
scalar TestScenario.uninfected[20].veinsmobility totalDistance 953.93871664307
scalar TestScenario.uninfected[20].veinsmobility totalCO2Emission 236.55335930287
scalar TestScenario.uninfected[15].appl generatedWSMs 31
scalar TestScenario.uninfected[15].appl receivedWSMs 8
scalar TestScenario.uninfected[15].appl generatedBSMs 59
scalar TestScenario.uninfected[15].appl receivedBSMs 12
scalar TestScenario.uninfected[15].appl generatedWSAs 0
scalar TestScenario.uninfected[15].appl receivedWSAs 0
scalar TestScenario.uninfected[15].nic.phy80211p busyTime 0.00095119101123596
scalar TestScenario.uninfected[15].nic.mac1609_4 ReceivedUnicastPackets 0
scalar TestScenario.uninfected[15].nic.mac1609_4 ReceivedBroadcasts 20
scalar TestScenario.uninfected[15].nic.mac1609_4 SentPackets 90
scalar TestScenario.uninfected[15].nic.mac1609_4 SentAcknowledgements 0
scalar TestScenario.uninfected[15].nic.mac1609_4 SNIRLostPackets 595
scalar TestScenario.uninfected[15].nic.mac1609_4 RXTXLostPackets 688
scalar TestScenario.uninfected[15].nic.mac1609_4 TotalLostPackets 1283
scalar TestScenario.uninfected[15].nic.mac1609_4 DroppedPacketsInMac 0
scalar TestScenario.uninfected[15].nic.mac1609_4 TooLittleTime 0
scalar TestScenario.uninfected[15].nic.mac1609_4 TimesIntoBackoff 90
scalar TestScenario.uninfected[15].nic.mac1609_4 SlotsBackoff 139
scalar TestScenario.uninfected[15].nic.mac1609_4 NumInternalContention 0
scalar TestScenario.uninfected[15].nic.mac1609_4 totalBusyTime 0.032492102617
scalar TestScenario.uninfected[15].veinsmobility startTime 16
scalar TestScenario.uninfected[15].veinsmobility totalTime 88
scalar TestScenario.uninfected[15].veinsmobility stopTime 105
scalar TestScenario.uninfected[15].veinsmobility minSpeed 0.53709502093064
scalar TestScenario.uninfected[15].veinsmobility maxSpeed 13.8870143887
scalar TestScenario.uninfected[15].veinsmobility totalDistance 959.95518888367
scalar TestScenario.uninfected[15].veinsmobility totalCO2Emission 265.76812934042
scalar TestScenario.uninfected[50].appl generatedWSMs 1
scalar TestScenario.uninfected[50].appl receivedWSMs 14
scalar TestScenario.uninfected[50].appl generatedBSMs 55
scalar TestScenario.uninfected[50].appl receivedBSMs 6
scalar TestScenario.uninfected[50].appl generatedWSAs 0
scalar TestScenario.uninfected[50].appl receivedWSAs 0
scalar TestScenario.uninfected[50].nic.phy80211p busyTime 0.001667
scalar TestScenario.uninfected[50].nic.mac1609_4 ReceivedUnicastPackets 0
scalar TestScenario.uninfected[50].nic.mac1609_4 ReceivedBroadcasts 20
scalar TestScenario.uninfected[50].nic.mac1609_4 SentPackets 56
scalar TestScenario.uninfected[50].nic.mac1609_4 SentAcknowledgements 0
scalar TestScenario.uninfected[50].nic.mac1609_4 SNIRLostPackets 677
scalar TestScenario.uninfected[50].nic.mac1609_4 RXTXLostPackets 850
scalar TestScenario.uninfected[50].nic.mac1609_4 TotalLostPackets 1527
scalar TestScenario.uninfected[50].nic.mac1609_4 DroppedPacketsInMac 0
scalar TestScenario.uninfected[50].nic.mac1609_4 TooLittleTime 0
scalar TestScenario.uninfected[50].nic.mac1609_4 TimesIntoBackoff 56
scalar TestScenario.uninfected[50].nic.mac1609_4 SlotsBackoff 94
scalar TestScenario.uninfected[50].nic.mac1609_4 NumInternalContention 0
scalar TestScenario.uninfected[50].nic.mac1609_4 totalBusyTime 0.024803950502
scalar TestScenario.uninfected[50].veinsmobility startTime 52
scalar TestScenario.uninfected[50].veinsmobility totalTime 55
scalar TestScenario.uninfected[50].veinsmobility stopTime 108
scalar TestScenario.uninfected[50].veinsmobility minSpeed 2.8763442045643
scalar TestScenario.uninfected[50].veinsmobility maxSpeed 13.883816716638
scalar TestScenario.uninfected[50].veinsmobility totalDistance 567.87318344929
scalar TestScenario.uninfected[50].veinsmobility totalCO2Emission 157.9057970121
scalar TestScenario.uninfected[29].appl generatedWSMs 22
scalar TestScenario.uninfected[29].appl receivedWSMs 13
scalar TestScenario.uninfected[29].appl generatedBSMs 61
scalar TestScenario.uninfected[29].appl receivedBSMs 15
scalar TestScenario.uninfected[29].appl generatedWSAs 0
scalar TestScenario.uninfected[29].appl receivedWSAs 0
scalar TestScenario.uninfected[29].nic.phy80211p busyTime 0.00099209876543211
scalar TestScenario.uninfected[29].nic.mac1609_4 ReceivedUnicastPackets 0
scalar TestScenario.uninfected[29].nic.mac1609_4 ReceivedBroadcasts 28
scalar TestScenario.uninfected[29].nic.mac1609_4 SentPackets 83
scalar TestScenario.uninfected[29].nic.mac1609_4 SentAcknowledgements 0
scalar TestScenario.uninfected[29].nic.mac1609_4 SNIRLostPackets 550
scalar TestScenario.uninfected[29].nic.mac1609_4 RXTXLostPackets 641
scalar TestScenario.uninfected[29].nic.mac1609_4 TotalLostPackets 1191
scalar TestScenario.uninfected[29].nic.mac1609_4 DroppedPacketsInMac 0
scalar TestScenario.uninfected[29].nic.mac1609_4 TooLittleTime 0
scalar TestScenario.uninfected[29].nic.mac1609_4 TimesIntoBackoff 83
scalar TestScenario.uninfected[29].nic.mac1609_4 SlotsBackoff 123
scalar TestScenario.uninfected[29].nic.mac1609_4 NumInternalContention 0
scalar TestScenario.uninfected[29].nic.mac1609_4 totalBusyTime 0.030049843327
scalar TestScenario.uninfected[29].veinsmobility startTime 30
scalar TestScenario.uninfected[29].veinsmobility totalTime 80
scalar TestScenario.uninfected[29].veinsmobility stopTime 111
scalar TestScenario.uninfected[29].veinsmobility minSpeed 3.9112171911293
scalar TestScenario.uninfected[29].veinsmobility maxSpeed 13.885318338973
scalar TestScenario.uninfected[29].veinsmobility totalDistance 967.55632943328
scalar TestScenario.uninfected[29].veinsmobility totalCO2Emission 214.94515363702
scalar TestScenario.uninfected[27].appl generatedWSMs 13
scalar TestScenario.uninfected[27].appl receivedWSMs 15
scalar TestScenario.uninfected[27].appl generatedBSMs 72
scalar TestScenario.uninfected[27].appl receivedBSMs 10
scalar TestScenario.uninfected[27].appl generatedWSAs 0
scalar TestScenario.uninfected[27].appl receivedWSAs 0
scalar TestScenario.uninfected[27].nic.phy80211p busyTime 0.0013506823529412
scalar TestScenario.uninfected[27].nic.mac1609_4 ReceivedUnicastPackets 0
scalar TestScenario.uninfected[27].nic.mac1609_4 ReceivedBroadcasts 25
scalar TestScenario.uninfected[27].nic.mac1609_4 SentPackets 85
scalar TestScenario.uninfected[27].nic.mac1609_4 SentAcknowledgements 0
scalar TestScenario.uninfected[27].nic.mac1609_4 SNIRLostPackets 779
scalar TestScenario.uninfected[27].nic.mac1609_4 RXTXLostPackets 804
scalar TestScenario.uninfected[27].nic.mac1609_4 TotalLostPackets 1583
scalar TestScenario.uninfected[27].nic.mac1609_4 DroppedPacketsInMac 0
scalar TestScenario.uninfected[27].nic.mac1609_4 TooLittleTime 0
scalar TestScenario.uninfected[27].nic.mac1609_4 TimesIntoBackoff 85
scalar TestScenario.uninfected[27].nic.mac1609_4 SlotsBackoff 109
scalar TestScenario.uninfected[27].nic.mac1609_4 NumInternalContention 0
scalar TestScenario.uninfected[27].nic.mac1609_4 totalBusyTime 0.03269477471
scalar TestScenario.uninfected[27].veinsmobility startTime 28
scalar TestScenario.uninfected[27].veinsmobility totalTime 84
scalar TestScenario.uninfected[27].veinsmobility stopTime 113
scalar TestScenario.uninfected[27].veinsmobility minSpeed 0.52493642787965
scalar TestScenario.uninfected[27].veinsmobility maxSpeed 13.888316221489
scalar TestScenario.uninfected[27].veinsmobility totalDistance 944.12896141743
scalar TestScenario.uninfected[27].veinsmobility totalCO2Emission 238.97221624056
scalar TestScenario.uninfected[33].appl generatedWSMs 18
scalar TestScenario.uninfected[33].appl receivedWSMs 4
scalar TestScenario.uninfected[33].appl generatedBSMs 63
scalar TestScenario.uninfected[33].appl receivedBSMs 12
scalar TestScenario.uninfected[33].appl generatedWSAs 0
scalar TestScenario.uninfected[33].appl receivedWSAs 0
scalar TestScenario.uninfected[33].nic.phy80211p busyTime 0.0007859
scalar TestScenario.uninfected[33].nic.mac1609_4 ReceivedUnicastPackets 0
scalar TestScenario.uninfected[33].nic.mac1609_4 ReceivedBroadcasts 16
scalar TestScenario.uninfected[33].nic.mac1609_4 SentPackets 81
scalar TestScenario.uninfected[33].nic.mac1609_4 SentAcknowledgements 0
scalar TestScenario.uninfected[33].nic.mac1609_4 SNIRLostPackets 428
scalar TestScenario.uninfected[33].nic.mac1609_4 RXTXLostPackets 441
scalar TestScenario.uninfected[33].nic.mac1609_4 TotalLostPackets 869
scalar TestScenario.uninfected[33].nic.mac1609_4 DroppedPacketsInMac 0
scalar TestScenario.uninfected[33].nic.mac1609_4 TooLittleTime 0
scalar TestScenario.uninfected[33].nic.mac1609_4 TimesIntoBackoff 81
scalar TestScenario.uninfected[33].nic.mac1609_4 SlotsBackoff 114
scalar TestScenario.uninfected[33].nic.mac1609_4 NumInternalContention 0
scalar TestScenario.uninfected[33].nic.mac1609_4 totalBusyTime 0.025801519828
scalar TestScenario.uninfected[33].veinsmobility startTime 34
scalar TestScenario.uninfected[33].veinsmobility totalTime 79
scalar TestScenario.uninfected[33].veinsmobility stopTime 114
scalar TestScenario.uninfected[33].veinsmobility minSpeed 3.6032333098119
scalar TestScenario.uninfected[33].veinsmobility maxSpeed 13.876669238606
scalar TestScenario.uninfected[33].veinsmobility totalDistance 960.76215118699
scalar TestScenario.uninfected[33].veinsmobility totalCO2Emission 211.51311650728
scalar TestScenario.uninfected[71].appl generatedWSMs 18
scalar TestScenario.uninfected[71].appl receivedWSMs 10
scalar TestScenario.uninfected[71].appl generatedBSMs 25
scalar TestScenario.uninfected[71].appl receivedBSMs 8
scalar TestScenario.uninfected[71].appl generatedWSAs 0
scalar TestScenario.uninfected[71].appl receivedWSAs 0
scalar TestScenario.uninfected[71].nic.phy80211p busyTime 0.0015049302325581
scalar TestScenario.uninfected[71].nic.mac1609_4 ReceivedUnicastPackets 0
scalar TestScenario.uninfected[71].nic.mac1609_4 ReceivedBroadcasts 18
scalar TestScenario.uninfected[71].nic.mac1609_4 SentPackets 43
scalar TestScenario.uninfected[71].nic.mac1609_4 SentAcknowledgements 0
scalar TestScenario.uninfected[71].nic.mac1609_4 SNIRLostPackets 491
scalar TestScenario.uninfected[71].nic.mac1609_4 RXTXLostPackets 760
scalar TestScenario.uninfected[71].nic.mac1609_4 TotalLostPackets 1251
scalar TestScenario.uninfected[71].nic.mac1609_4 DroppedPacketsInMac 0
scalar TestScenario.uninfected[71].nic.mac1609_4 TooLittleTime 0
scalar TestScenario.uninfected[71].nic.mac1609_4 TimesIntoBackoff 43
scalar TestScenario.uninfected[71].nic.mac1609_4 SlotsBackoff 65
scalar TestScenario.uninfected[71].nic.mac1609_4 NumInternalContention 0
scalar TestScenario.uninfected[71].nic.mac1609_4 totalBusyTime 0.017839611587
scalar TestScenario.uninfected[71].veinsmobility startTime 73
scalar TestScenario.uninfected[71].veinsmobility totalTime 42
scalar TestScenario.uninfected[71].veinsmobility stopTime 116
scalar TestScenario.uninfected[71].veinsmobility minSpeed 0
scalar TestScenario.uninfected[71].veinsmobility maxSpeed 13.884002572349
scalar TestScenario.uninfected[71].veinsmobility totalDistance 365.80105046329
scalar TestScenario.uninfected[71].veinsmobility totalCO2Emission 117.76891308929
scalar TestScenario.uninfected[36].appl generatedWSMs 29
scalar TestScenario.uninfected[36].appl receivedWSMs 21
scalar TestScenario.uninfected[36].appl generatedBSMs 54
scalar TestScenario.uninfected[36].appl receivedBSMs 3
scalar TestScenario.uninfected[36].appl generatedWSAs 0
scalar TestScenario.uninfected[36].appl receivedWSAs 0
scalar TestScenario.uninfected[36].nic.phy80211p busyTime 0.0012368780487805
scalar TestScenario.uninfected[36].nic.mac1609_4 ReceivedUnicastPackets 0
scalar TestScenario.uninfected[36].nic.mac1609_4 ReceivedBroadcasts 24
scalar TestScenario.uninfected[36].nic.mac1609_4 SentPackets 83
scalar TestScenario.uninfected[36].nic.mac1609_4 SentAcknowledgements 0
scalar TestScenario.uninfected[36].nic.mac1609_4 SNIRLostPackets 678
scalar TestScenario.uninfected[36].nic.mac1609_4 RXTXLostPackets 656
scalar TestScenario.uninfected[36].nic.mac1609_4 TotalLostPackets 1334
scalar TestScenario.uninfected[36].nic.mac1609_4 DroppedPacketsInMac 0
scalar TestScenario.uninfected[36].nic.mac1609_4 TooLittleTime 0
scalar TestScenario.uninfected[36].nic.mac1609_4 TimesIntoBackoff 83
scalar TestScenario.uninfected[36].nic.mac1609_4 SlotsBackoff 133
scalar TestScenario.uninfected[36].nic.mac1609_4 NumInternalContention 0
scalar TestScenario.uninfected[36].nic.mac1609_4 totalBusyTime 0.031408173513
scalar TestScenario.uninfected[36].veinsmobility startTime 37
scalar TestScenario.uninfected[36].veinsmobility totalTime 81
scalar TestScenario.uninfected[36].veinsmobility stopTime 119
scalar TestScenario.uninfected[36].veinsmobility minSpeed 3.890602850751
scalar TestScenario.uninfected[36].veinsmobility maxSpeed 13.888802927609
scalar TestScenario.uninfected[36].veinsmobility totalDistance 962.54017181785
scalar TestScenario.uninfected[36].veinsmobility totalCO2Emission 233.84055380224
scalar TestScenario.uninfected[48].appl generatedWSMs 18
scalar TestScenario.uninfected[48].appl receivedWSMs 11
scalar TestScenario.uninfected[48].appl generatedBSMs 53
scalar TestScenario.uninfected[48].appl receivedBSMs 5
scalar TestScenario.uninfected[48].appl generatedWSAs 0
scalar TestScenario.uninfected[48].appl receivedWSAs 0
scalar TestScenario.uninfected[48].nic.phy80211p busyTime 0.0018202285714286
scalar TestScenario.uninfected[48].nic.mac1609_4 ReceivedUnicastPackets 0
scalar TestScenario.uninfected[48].nic.mac1609_4 ReceivedBroadcasts 16
scalar TestScenario.uninfected[48].nic.mac1609_4 SentPackets 71
scalar TestScenario.uninfected[48].nic.mac1609_4 SentAcknowledgements 0
scalar TestScenario.uninfected[48].nic.mac1609_4 SNIRLostPackets 871
scalar TestScenario.uninfected[48].nic.mac1609_4 RXTXLostPackets 861
scalar TestScenario.uninfected[48].nic.mac1609_4 TotalLostPackets 1732
scalar TestScenario.uninfected[48].nic.mac1609_4 DroppedPacketsInMac 0
scalar TestScenario.uninfected[48].nic.mac1609_4 TooLittleTime 0
scalar TestScenario.uninfected[48].nic.mac1609_4 TimesIntoBackoff 71
scalar TestScenario.uninfected[48].nic.mac1609_4 SlotsBackoff 100
scalar TestScenario.uninfected[48].nic.mac1609_4 NumInternalContention 0
scalar TestScenario.uninfected[48].nic.mac1609_4 totalBusyTime 0.027789404669
scalar TestScenario.uninfected[48].veinsmobility startTime 49
scalar TestScenario.uninfected[48].veinsmobility totalTime 69
scalar TestScenario.uninfected[48].veinsmobility stopTime 119
scalar TestScenario.uninfected[48].veinsmobility minSpeed 4.0061316501068
scalar TestScenario.uninfected[48].veinsmobility maxSpeed 13.888244064159
scalar TestScenario.uninfected[48].veinsmobility totalDistance 765.2253033822
scalar TestScenario.uninfected[48].veinsmobility totalCO2Emission 208.24607848638
scalar TestScenario.uninfected[66].appl generatedWSMs 2
scalar TestScenario.uninfected[66].appl receivedWSMs 6
scalar TestScenario.uninfected[66].appl generatedBSMs 50
scalar TestScenario.uninfected[66].appl receivedBSMs 9
scalar TestScenario.uninfected[66].appl generatedWSAs 0
scalar TestScenario.uninfected[66].appl receivedWSAs 0
scalar TestScenario.uninfected[66].nic.phy80211p busyTime 0.0012223076923077
scalar TestScenario.uninfected[66].nic.mac1609_4 ReceivedUnicastPackets 0
scalar TestScenario.uninfected[66].nic.mac1609_4 ReceivedBroadcasts 15
scalar TestScenario.uninfected[66].nic.mac1609_4 SentPackets 52
scalar TestScenario.uninfected[66].nic.mac1609_4 SentAcknowledgements 0
scalar TestScenario.uninfected[66].nic.mac1609_4 SNIRLostPackets 443
scalar TestScenario.uninfected[66].nic.mac1609_4 RXTXLostPackets 514
scalar TestScenario.uninfected[66].nic.mac1609_4 TotalLostPackets 957
scalar TestScenario.uninfected[66].nic.mac1609_4 DroppedPacketsInMac 0
scalar TestScenario.uninfected[66].nic.mac1609_4 TooLittleTime 0
scalar TestScenario.uninfected[66].nic.mac1609_4 TimesIntoBackoff 52
scalar TestScenario.uninfected[66].nic.mac1609_4 SlotsBackoff 72
scalar TestScenario.uninfected[66].nic.mac1609_4 NumInternalContention 0
scalar TestScenario.uninfected[66].nic.mac1609_4 totalBusyTime 0.018260949332
scalar TestScenario.uninfected[66].veinsmobility startTime 67
scalar TestScenario.uninfected[66].veinsmobility totalTime 51
scalar TestScenario.uninfected[66].veinsmobility stopTime 119
scalar TestScenario.uninfected[66].veinsmobility minSpeed 3.5641482248055
scalar TestScenario.uninfected[66].veinsmobility maxSpeed 13.886155473492
scalar TestScenario.uninfected[66].veinsmobility totalDistance 556.30671010491
scalar TestScenario.uninfected[66].veinsmobility totalCO2Emission 157.27937646964
scalar TestScenario.uninfected[37].appl generatedWSMs 10
scalar TestScenario.uninfected[37].appl receivedWSMs 16
scalar TestScenario.uninfected[37].appl generatedBSMs 76
scalar TestScenario.uninfected[37].appl receivedBSMs 22
scalar TestScenario.uninfected[37].appl generatedWSAs 0
scalar TestScenario.uninfected[37].appl receivedWSAs 0
scalar TestScenario.uninfected[37].nic.phy80211p busyTime 0.00108
scalar TestScenario.uninfected[37].nic.mac1609_4 ReceivedUnicastPackets 0
scalar TestScenario.uninfected[37].nic.mac1609_4 ReceivedBroadcasts 38
scalar TestScenario.uninfected[37].nic.mac1609_4 SentPackets 86
scalar TestScenario.uninfected[37].nic.mac1609_4 SentAcknowledgements 0
scalar TestScenario.uninfected[37].nic.mac1609_4 SNIRLostPackets 592
scalar TestScenario.uninfected[37].nic.mac1609_4 RXTXLostPackets 771
scalar TestScenario.uninfected[37].nic.mac1609_4 TotalLostPackets 1363
scalar TestScenario.uninfected[37].nic.mac1609_4 DroppedPacketsInMac 0
scalar TestScenario.uninfected[37].nic.mac1609_4 TooLittleTime 0
scalar TestScenario.uninfected[37].nic.mac1609_4 TimesIntoBackoff 86
scalar TestScenario.uninfected[37].nic.mac1609_4 SlotsBackoff 136
scalar TestScenario.uninfected[37].nic.mac1609_4 NumInternalContention 0
scalar TestScenario.uninfected[37].nic.mac1609_4 totalBusyTime 0.032744319731
scalar TestScenario.uninfected[37].veinsmobility startTime 38
scalar TestScenario.uninfected[37].veinsmobility totalTime 82
scalar TestScenario.uninfected[37].veinsmobility stopTime 121
scalar TestScenario.uninfected[37].veinsmobility minSpeed 3.5616530528934
scalar TestScenario.uninfected[37].veinsmobility maxSpeed 13.889022939045
scalar TestScenario.uninfected[37].veinsmobility totalDistance 978.76528078076
scalar TestScenario.uninfected[37].veinsmobility totalCO2Emission 227.99521600094
scalar TestScenario.uninfected[64].appl generatedWSMs 7
scalar TestScenario.uninfected[64].appl receivedWSMs 20
scalar TestScenario.uninfected[64].appl generatedBSMs 58
scalar TestScenario.uninfected[64].appl receivedBSMs 2
scalar TestScenario.uninfected[64].appl generatedWSAs 0
scalar TestScenario.uninfected[64].appl receivedWSAs 0
scalar TestScenario.uninfected[64].nic.phy80211p busyTime 0.001576253968254
scalar TestScenario.uninfected[64].nic.mac1609_4 ReceivedUnicastPackets 0
scalar TestScenario.uninfected[64].nic.mac1609_4 ReceivedBroadcasts 22
scalar TestScenario.uninfected[64].nic.mac1609_4 SentPackets 65
scalar TestScenario.uninfected[64].nic.mac1609_4 SentAcknowledgements 0
scalar TestScenario.uninfected[64].nic.mac1609_4 SNIRLostPackets 698
scalar TestScenario.uninfected[64].nic.mac1609_4 RXTXLostPackets 815
scalar TestScenario.uninfected[64].nic.mac1609_4 TotalLostPackets 1513
scalar TestScenario.uninfected[64].nic.mac1609_4 DroppedPacketsInMac 0
scalar TestScenario.uninfected[64].nic.mac1609_4 TooLittleTime 0
scalar TestScenario.uninfected[64].nic.mac1609_4 TimesIntoBackoff 65
scalar TestScenario.uninfected[64].nic.mac1609_4 SlotsBackoff 92
scalar TestScenario.uninfected[64].nic.mac1609_4 NumInternalContention 0
scalar TestScenario.uninfected[64].nic.mac1609_4 totalBusyTime 0.025711648072
scalar TestScenario.uninfected[64].veinsmobility startTime 65
scalar TestScenario.uninfected[64].veinsmobility totalTime 62
scalar TestScenario.uninfected[64].veinsmobility stopTime 128
scalar TestScenario.uninfected[64].veinsmobility minSpeed 3.7711675823907
scalar TestScenario.uninfected[64].veinsmobility maxSpeed 13.887366587443
scalar TestScenario.uninfected[64].veinsmobility totalDistance 777.78635412305
scalar TestScenario.uninfected[64].veinsmobility totalCO2Emission 141.50120678401
scalar TestScenario.uninfected[65].appl generatedWSMs 5
scalar TestScenario.uninfected[65].appl receivedWSMs 15
scalar TestScenario.uninfected[65].appl generatedBSMs 58
scalar TestScenario.uninfected[65].appl receivedBSMs 9
scalar TestScenario.uninfected[65].appl generatedWSAs 0
scalar TestScenario.uninfected[65].appl receivedWSAs 0
scalar TestScenario.uninfected[65].nic.phy80211p busyTime 0.00099870967741936
scalar TestScenario.uninfected[65].nic.mac1609_4 ReceivedUnicastPackets 0
scalar TestScenario.uninfected[65].nic.mac1609_4 ReceivedBroadcasts 24
scalar TestScenario.uninfected[65].nic.mac1609_4 SentPackets 63
scalar TestScenario.uninfected[65].nic.mac1609_4 SentAcknowledgements 0
scalar TestScenario.uninfected[65].nic.mac1609_4 SNIRLostPackets 423
scalar TestScenario.uninfected[65].nic.mac1609_4 RXTXLostPackets 514
scalar TestScenario.uninfected[65].nic.mac1609_4 TotalLostPackets 937
scalar TestScenario.uninfected[65].nic.mac1609_4 DroppedPacketsInMac 0
scalar TestScenario.uninfected[65].nic.mac1609_4 TooLittleTime 0
scalar TestScenario.uninfected[65].nic.mac1609_4 TimesIntoBackoff 63
scalar TestScenario.uninfected[65].nic.mac1609_4 SlotsBackoff 96
scalar TestScenario.uninfected[65].nic.mac1609_4 NumInternalContention 0
scalar TestScenario.uninfected[65].nic.mac1609_4 totalBusyTime 0.021023611691
scalar TestScenario.uninfected[65].veinsmobility startTime 66
scalar TestScenario.uninfected[65].veinsmobility totalTime 61
scalar TestScenario.uninfected[65].veinsmobility stopTime 128
scalar TestScenario.uninfected[65].veinsmobility minSpeed 3.9646679083663
scalar TestScenario.uninfected[65].veinsmobility maxSpeed 13.887033339364
scalar TestScenario.uninfected[65].veinsmobility totalDistance 774.98777092518
scalar TestScenario.uninfected[65].veinsmobility totalCO2Emission 158.70348531868
scalar TestScenario.uninfected[28].appl generatedWSMs 5
scalar TestScenario.uninfected[28].appl receivedWSMs 19
scalar TestScenario.uninfected[28].appl generatedBSMs 96
scalar TestScenario.uninfected[28].appl receivedBSMs 18
scalar TestScenario.uninfected[28].appl generatedWSAs 0
scalar TestScenario.uninfected[28].appl receivedWSAs 0
scalar TestScenario.uninfected[28].nic.phy80211p busyTime 0.0015399595959596
scalar TestScenario.uninfected[28].nic.mac1609_4 ReceivedUnicastPackets 0
scalar TestScenario.uninfected[28].nic.mac1609_4 ReceivedBroadcasts 37
scalar TestScenario.uninfected[28].nic.mac1609_4 SentPackets 101
scalar TestScenario.uninfected[28].nic.mac1609_4 SentAcknowledgements 0
scalar TestScenario.uninfected[28].nic.mac1609_4 SNIRLostPackets 1061
scalar TestScenario.uninfected[28].nic.mac1609_4 RXTXLostPackets 1144
scalar TestScenario.uninfected[28].nic.mac1609_4 TotalLostPackets 2205
scalar TestScenario.uninfected[28].nic.mac1609_4 DroppedPacketsInMac 0
scalar TestScenario.uninfected[28].nic.mac1609_4 TooLittleTime 0
scalar TestScenario.uninfected[28].nic.mac1609_4 TimesIntoBackoff 101
scalar TestScenario.uninfected[28].nic.mac1609_4 SlotsBackoff 151
scalar TestScenario.uninfected[28].nic.mac1609_4 NumInternalContention 0
scalar TestScenario.uninfected[28].nic.mac1609_4 totalBusyTime 0.039276575417
scalar TestScenario.uninfected[28].veinsmobility startTime 29
scalar TestScenario.uninfected[28].veinsmobility totalTime 98
scalar TestScenario.uninfected[28].veinsmobility stopTime 128
scalar TestScenario.uninfected[28].veinsmobility minSpeed 0
scalar TestScenario.uninfected[28].veinsmobility maxSpeed 13.889776994304
scalar TestScenario.uninfected[28].veinsmobility totalDistance 946.63908684933
scalar TestScenario.uninfected[28].veinsmobility totalCO2Emission 256.65087158859
scalar TestScenario.uninfected[45].appl generatedWSMs 12
scalar TestScenario.uninfected[45].appl receivedWSMs 21
scalar TestScenario.uninfected[45].appl generatedBSMs 74
scalar TestScenario.uninfected[45].appl receivedBSMs 12
scalar TestScenario.uninfected[45].appl generatedWSAs 0
scalar TestScenario.uninfected[45].appl receivedWSAs 0
scalar TestScenario.uninfected[45].nic.phy80211p busyTime 0.0015579759036145
scalar TestScenario.uninfected[45].nic.mac1609_4 ReceivedUnicastPackets 0
scalar TestScenario.uninfected[45].nic.mac1609_4 ReceivedBroadcasts 33
scalar TestScenario.uninfected[45].nic.mac1609_4 SentPackets 86
scalar TestScenario.uninfected[45].nic.mac1609_4 SentAcknowledgements 0
scalar TestScenario.uninfected[45].nic.mac1609_4 SNIRLostPackets 908
scalar TestScenario.uninfected[45].nic.mac1609_4 RXTXLostPackets 966
scalar TestScenario.uninfected[45].nic.mac1609_4 TotalLostPackets 1874
scalar TestScenario.uninfected[45].nic.mac1609_4 DroppedPacketsInMac 0
scalar TestScenario.uninfected[45].nic.mac1609_4 TooLittleTime 0
scalar TestScenario.uninfected[45].nic.mac1609_4 TimesIntoBackoff 86
scalar TestScenario.uninfected[45].nic.mac1609_4 SlotsBackoff 125
scalar TestScenario.uninfected[45].nic.mac1609_4 NumInternalContention 0
scalar TestScenario.uninfected[45].nic.mac1609_4 totalBusyTime 0.035302567613
scalar TestScenario.uninfected[45].veinsmobility startTime 46
scalar TestScenario.uninfected[45].veinsmobility totalTime 82
scalar TestScenario.uninfected[45].veinsmobility stopTime 129
scalar TestScenario.uninfected[45].veinsmobility minSpeed 3.4134697402982
scalar TestScenario.uninfected[45].veinsmobility maxSpeed 13.888685336341
scalar TestScenario.uninfected[45].veinsmobility totalDistance 965.73029204224
scalar TestScenario.uninfected[45].veinsmobility totalCO2Emission 236.61661230492
scalar TestScenario.uninfected[17].appl generatedWSMs 3
scalar TestScenario.uninfected[17].appl receivedWSMs 22
scalar TestScenario.uninfected[17].appl generatedBSMs 110
scalar TestScenario.uninfected[17].appl receivedBSMs 14
scalar TestScenario.uninfected[17].appl generatedWSAs 0
scalar TestScenario.uninfected[17].appl receivedWSAs 0
scalar TestScenario.uninfected[17].nic.phy80211p busyTime 0.0011381621621622
scalar TestScenario.uninfected[17].nic.mac1609_4 ReceivedUnicastPackets 0
scalar TestScenario.uninfected[17].nic.mac1609_4 ReceivedBroadcasts 36
scalar TestScenario.uninfected[17].nic.mac1609_4 SentPackets 113
scalar TestScenario.uninfected[17].nic.mac1609_4 SentAcknowledgements 0
scalar TestScenario.uninfected[17].nic.mac1609_4 SNIRLostPackets 866
scalar TestScenario.uninfected[17].nic.mac1609_4 RXTXLostPackets 1007
scalar TestScenario.uninfected[17].nic.mac1609_4 TotalLostPackets 1873
scalar TestScenario.uninfected[17].nic.mac1609_4 DroppedPacketsInMac 0
scalar TestScenario.uninfected[17].nic.mac1609_4 TooLittleTime 0
scalar TestScenario.uninfected[17].nic.mac1609_4 TimesIntoBackoff 113
scalar TestScenario.uninfected[17].nic.mac1609_4 SlotsBackoff 168
scalar TestScenario.uninfected[17].nic.mac1609_4 NumInternalContention 0
scalar TestScenario.uninfected[17].nic.mac1609_4 totalBusyTime 0.040099622516
scalar TestScenario.uninfected[17].veinsmobility startTime 18
scalar TestScenario.uninfected[17].veinsmobility totalTime 110
scalar TestScenario.uninfected[17].veinsmobility stopTime 129
scalar TestScenario.uninfected[17].veinsmobility minSpeed 3.8093035120389
scalar TestScenario.uninfected[17].veinsmobility maxSpeed 13.889228570948
scalar TestScenario.uninfected[17].veinsmobility totalDistance 1360.1343731332
scalar TestScenario.uninfected[17].veinsmobility totalCO2Emission 290.48029562524
scalar TestScenario.uninfected[43].appl generatedWSMs 11
scalar TestScenario.uninfected[43].appl receivedWSMs 11
scalar TestScenario.uninfected[43].appl generatedBSMs 78
scalar TestScenario.uninfected[43].appl receivedBSMs 11
scalar TestScenario.uninfected[43].appl generatedWSAs 0
scalar TestScenario.uninfected[43].appl receivedWSAs 0
scalar TestScenario.uninfected[43].nic.phy80211p busyTime 0.0010568275862069
scalar TestScenario.uninfected[43].nic.mac1609_4 ReceivedUnicastPackets 0
scalar TestScenario.uninfected[43].nic.mac1609_4 ReceivedBroadcasts 22
scalar TestScenario.uninfected[43].nic.mac1609_4 SentPackets 89
scalar TestScenario.uninfected[43].nic.mac1609_4 SentAcknowledgements 0
scalar TestScenario.uninfected[43].nic.mac1609_4 SNIRLostPackets 617
scalar TestScenario.uninfected[43].nic.mac1609_4 RXTXLostPackets 672
scalar TestScenario.uninfected[43].nic.mac1609_4 TotalLostPackets 1289
scalar TestScenario.uninfected[43].nic.mac1609_4 DroppedPacketsInMac 0
scalar TestScenario.uninfected[43].nic.mac1609_4 TooLittleTime 0
scalar TestScenario.uninfected[43].nic.mac1609_4 TimesIntoBackoff 89
scalar TestScenario.uninfected[43].nic.mac1609_4 SlotsBackoff 122
scalar TestScenario.uninfected[43].nic.mac1609_4 NumInternalContention 0
scalar TestScenario.uninfected[43].nic.mac1609_4 totalBusyTime 0.031901361401
scalar TestScenario.uninfected[43].veinsmobility startTime 44
scalar TestScenario.uninfected[43].veinsmobility totalTime 86
scalar TestScenario.uninfected[43].veinsmobility stopTime 131
scalar TestScenario.uninfected[43].veinsmobility minSpeed 3.5684427641658
scalar TestScenario.uninfected[43].veinsmobility maxSpeed 13.889501384608
scalar TestScenario.uninfected[43].veinsmobility totalDistance 954.75590949653
scalar TestScenario.uninfected[43].veinsmobility totalCO2Emission 259.15555597771
scalar TestScenario.uninfected[31].appl generatedWSMs 33
scalar TestScenario.uninfected[31].appl receivedWSMs 17
scalar TestScenario.uninfected[31].appl generatedBSMs 68
scalar TestScenario.uninfected[31].appl receivedBSMs 11
scalar TestScenario.uninfected[31].appl generatedWSAs 0
scalar TestScenario.uninfected[31].appl receivedWSAs 0
scalar TestScenario.uninfected[31].nic.phy80211p busyTime 0.00122344
scalar TestScenario.uninfected[31].nic.mac1609_4 ReceivedUnicastPackets 0
scalar TestScenario.uninfected[31].nic.mac1609_4 ReceivedBroadcasts 28
scalar TestScenario.uninfected[31].nic.mac1609_4 SentPackets 101
scalar TestScenario.uninfected[31].nic.mac1609_4 SentAcknowledgements 0
scalar TestScenario.uninfected[31].nic.mac1609_4 SNIRLostPackets 865
scalar TestScenario.uninfected[31].nic.mac1609_4 RXTXLostPackets 943
scalar TestScenario.uninfected[31].nic.mac1609_4 TotalLostPackets 1808
scalar TestScenario.uninfected[31].nic.mac1609_4 DroppedPacketsInMac 0
scalar TestScenario.uninfected[31].nic.mac1609_4 TooLittleTime 0
scalar TestScenario.uninfected[31].nic.mac1609_4 TimesIntoBackoff 101
scalar TestScenario.uninfected[31].nic.mac1609_4 SlotsBackoff 152
scalar TestScenario.uninfected[31].nic.mac1609_4 NumInternalContention 0
scalar TestScenario.uninfected[31].nic.mac1609_4 totalBusyTime 0.03668835134
scalar TestScenario.uninfected[31].veinsmobility startTime 32
scalar TestScenario.uninfected[31].veinsmobility totalTime 99
scalar TestScenario.uninfected[31].veinsmobility stopTime 132
scalar TestScenario.uninfected[31].veinsmobility minSpeed 3.3435786166504
scalar TestScenario.uninfected[31].veinsmobility maxSpeed 13.889225196582
scalar TestScenario.uninfected[31].veinsmobility totalDistance 1151.4982085939
scalar TestScenario.uninfected[31].veinsmobility totalCO2Emission 286.61931160231
scalar TestScenario.uninfected[77].appl generatedWSMs 9
scalar TestScenario.uninfected[77].appl receivedWSMs 13
scalar TestScenario.uninfected[77].appl generatedBSMs 53
scalar TestScenario.uninfected[77].appl receivedBSMs 5
scalar TestScenario.uninfected[77].appl generatedWSAs 0
scalar TestScenario.uninfected[77].appl receivedWSAs 0
scalar TestScenario.uninfected[77].nic.phy80211p busyTime 0.0016488275862069
scalar TestScenario.uninfected[77].nic.mac1609_4 ReceivedUnicastPackets 0
scalar TestScenario.uninfected[77].nic.mac1609_4 ReceivedBroadcasts 18
scalar TestScenario.uninfected[77].nic.mac1609_4 SentPackets 62
scalar TestScenario.uninfected[77].nic.mac1609_4 SentAcknowledgements 0
scalar TestScenario.uninfected[77].nic.mac1609_4 SNIRLostPackets 638
scalar TestScenario.uninfected[77].nic.mac1609_4 RXTXLostPackets 573
scalar TestScenario.uninfected[77].nic.mac1609_4 TotalLostPackets 1211
scalar TestScenario.uninfected[77].nic.mac1609_4 DroppedPacketsInMac 0
scalar TestScenario.uninfected[77].nic.mac1609_4 TooLittleTime 0
scalar TestScenario.uninfected[77].nic.mac1609_4 TimesIntoBackoff 62
scalar TestScenario.uninfected[77].nic.mac1609_4 SlotsBackoff 106
scalar TestScenario.uninfected[77].nic.mac1609_4 NumInternalContention 0
scalar TestScenario.uninfected[77].nic.mac1609_4 totalBusyTime 0.02503176818
scalar TestScenario.uninfected[77].veinsmobility startTime 78
scalar TestScenario.uninfected[77].veinsmobility totalTime 57
scalar TestScenario.uninfected[77].veinsmobility stopTime 136
scalar TestScenario.uninfected[77].veinsmobility minSpeed 0.44576801371237
[...]
scalar TestScenario.uninfected[111].nic.mac1609_4 RXTXLostPackets 1681
scalar TestScenario.uninfected[111].nic.mac1609_4 TotalLostPackets 3117
scalar TestScenario.uninfected[111].nic.mac1609_4 DroppedPacketsInMac 0
scalar TestScenario.uninfected[111].nic.mac1609_4 TooLittleTime 0
scalar TestScenario.uninfected[111].nic.mac1609_4 TimesIntoBackoff 117
scalar TestScenario.uninfected[111].nic.mac1609_4 SlotsBackoff 163
scalar TestScenario.uninfected[111].nic.mac1609_4 NumInternalContention 0
scalar TestScenario.uninfected[111].nic.mac1609_4 totalBusyTime 0.047713050335
scalar TestScenario.uninfected[111].veinsmobility startTime 113
scalar TestScenario.uninfected[111].veinsmobility totalTime 111
scalar TestScenario.uninfected[111].veinsmobility stopTime 225
scalar TestScenario.uninfected[111].veinsmobility minSpeed 0
scalar TestScenario.uninfected[111].veinsmobility maxSpeed 13.888431809833
scalar TestScenario.uninfected[111].veinsmobility totalDistance 974.68685961116
scalar TestScenario.uninfected[111].veinsmobility totalCO2Emission 297.40823105603
scalar TestScenario.uninfected[73].appl generatedWSMs 20
scalar TestScenario.uninfected[73].appl receivedWSMs 40
scalar TestScenario.uninfected[73].appl generatedBSMs 137
scalar TestScenario.uninfected[73].appl receivedBSMs 16
scalar TestScenario.uninfected[73].appl generatedWSAs 0
scalar TestScenario.uninfected[73].appl receivedWSAs 0
scalar TestScenario.uninfected[73].nic.phy80211p busyTime 0.0016148947368421
scalar TestScenario.uninfected[73].nic.mac1609_4 ReceivedUnicastPackets 0
scalar TestScenario.uninfected[73].nic.mac1609_4 ReceivedBroadcasts 56
scalar TestScenario.uninfected[73].nic.mac1609_4 SentPackets 157
scalar TestScenario.uninfected[73].nic.mac1609_4 SentAcknowledgements 0
scalar TestScenario.uninfected[73].nic.mac1609_4 SNIRLostPackets 1756
scalar TestScenario.uninfected[73].nic.mac1609_4 RXTXLostPackets 1803
scalar TestScenario.uninfected[73].nic.mac1609_4 TotalLostPackets 3559
scalar TestScenario.uninfected[73].nic.mac1609_4 DroppedPacketsInMac 0
scalar TestScenario.uninfected[73].nic.mac1609_4 TooLittleTime 0
scalar TestScenario.uninfected[73].nic.mac1609_4 TimesIntoBackoff 157
scalar TestScenario.uninfected[73].nic.mac1609_4 SlotsBackoff 259
scalar TestScenario.uninfected[73].nic.mac1609_4 NumInternalContention 0
scalar TestScenario.uninfected[73].nic.mac1609_4 totalBusyTime 0.063565934581
scalar TestScenario.uninfected[73].veinsmobility startTime 74
scalar TestScenario.uninfected[73].veinsmobility totalTime 151
scalar TestScenario.uninfected[73].veinsmobility stopTime 226
scalar TestScenario.uninfected[73].veinsmobility minSpeed 1.1142095475402e-009
scalar TestScenario.uninfected[73].veinsmobility maxSpeed 13.888808402452
scalar TestScenario.uninfected[73].veinsmobility totalDistance 1759.8314148621
scalar TestScenario.uninfected[73].veinsmobility totalCO2Emission 400.50955804415
scalar TestScenario.uninfected[143].appl generatedWSMs 6
scalar TestScenario.uninfected[143].appl receivedWSMs 34
scalar TestScenario.uninfected[143].appl generatedBSMs 81
scalar TestScenario.uninfected[143].appl receivedBSMs 8
scalar TestScenario.uninfected[143].appl generatedWSAs 0
scalar TestScenario.uninfected[143].appl receivedWSAs 0
scalar TestScenario.uninfected[143].nic.phy80211p busyTime 0.0022661463414634
scalar TestScenario.uninfected[143].nic.mac1609_4 ReceivedUnicastPackets 0
scalar TestScenario.uninfected[143].nic.mac1609_4 ReceivedBroadcasts 42
scalar TestScenario.uninfected[143].nic.mac1609_4 SentPackets 87
scalar TestScenario.uninfected[143].nic.mac1609_4 SentAcknowledgements 0
scalar TestScenario.uninfected[143].nic.mac1609_4 SNIRLostPackets 1342
scalar TestScenario.uninfected[143].nic.mac1609_4 RXTXLostPackets 1394
scalar TestScenario.uninfected[143].nic.mac1609_4 TotalLostPackets 2736
scalar TestScenario.uninfected[143].nic.mac1609_4 DroppedPacketsInMac 0
scalar TestScenario.uninfected[143].nic.mac1609_4 TooLittleTime 0
scalar TestScenario.uninfected[143].nic.mac1609_4 TimesIntoBackoff 87
scalar TestScenario.uninfected[143].nic.mac1609_4 SlotsBackoff 136
scalar TestScenario.uninfected[143].nic.mac1609_4 NumInternalContention 0
scalar TestScenario.uninfected[143].nic.mac1609_4 totalBusyTime 0.037982762171
scalar TestScenario.uninfected[143].veinsmobility startTime 146
scalar TestScenario.uninfected[143].veinsmobility totalTime 81
scalar TestScenario.uninfected[143].veinsmobility stopTime 228
scalar TestScenario.uninfected[143].veinsmobility minSpeed 3.1640178539599
scalar TestScenario.uninfected[143].veinsmobility maxSpeed 13.886819619008
scalar TestScenario.uninfected[143].veinsmobility totalDistance 956.13066669005
scalar TestScenario.uninfected[143].veinsmobility totalCO2Emission 211.53273455988
scalar TestScenario.uninfected[136].appl generatedWSMs 10
scalar TestScenario.uninfected[136].appl receivedWSMs 17
scalar TestScenario.uninfected[136].appl generatedBSMs 83
scalar TestScenario.uninfected[136].appl receivedBSMs 11
scalar TestScenario.uninfected[136].appl generatedWSAs 0
scalar TestScenario.uninfected[136].appl receivedWSAs 0
scalar TestScenario.uninfected[136].nic.phy80211p busyTime 0.0020660444444445
scalar TestScenario.uninfected[136].nic.mac1609_4 ReceivedUnicastPackets 0
scalar TestScenario.uninfected[136].nic.mac1609_4 ReceivedBroadcasts 28
scalar TestScenario.uninfected[136].nic.mac1609_4 SentPackets 93
scalar TestScenario.uninfected[136].nic.mac1609_4 SentAcknowledgements 0
scalar TestScenario.uninfected[136].nic.mac1609_4 SNIRLostPackets 1207
scalar TestScenario.uninfected[136].nic.mac1609_4 RXTXLostPackets 1217
scalar TestScenario.uninfected[136].nic.mac1609_4 TotalLostPackets 2424
scalar TestScenario.uninfected[136].nic.mac1609_4 DroppedPacketsInMac 0
scalar TestScenario.uninfected[136].nic.mac1609_4 TooLittleTime 0
scalar TestScenario.uninfected[136].nic.mac1609_4 TimesIntoBackoff 93
scalar TestScenario.uninfected[136].nic.mac1609_4 SlotsBackoff 138
scalar TestScenario.uninfected[136].nic.mac1609_4 NumInternalContention 0
scalar TestScenario.uninfected[136].nic.mac1609_4 totalBusyTime 0.039372839709
scalar TestScenario.uninfected[136].veinsmobility startTime 139
scalar TestScenario.uninfected[136].veinsmobility totalTime 89
scalar TestScenario.uninfected[136].veinsmobility stopTime 229
scalar TestScenario.uninfected[136].veinsmobility minSpeed 3.9162220584198
scalar TestScenario.uninfected[136].veinsmobility maxSpeed 13.889626507822
scalar TestScenario.uninfected[136].veinsmobility totalDistance 1163.6422835049
scalar TestScenario.uninfected[136].veinsmobility totalCO2Emission 214.52138937548
scalar TestScenario.uninfected[159].appl generatedWSMs 20
scalar TestScenario.uninfected[159].appl receivedWSMs 12
scalar TestScenario.uninfected[159].appl generatedBSMs 49
scalar TestScenario.uninfected[159].appl receivedBSMs 12
scalar TestScenario.uninfected[159].appl generatedWSAs 0
scalar TestScenario.uninfected[159].appl receivedWSAs 0
scalar TestScenario.uninfected[159].nic.phy80211p busyTime 0.0013805882352941
scalar TestScenario.uninfected[159].nic.mac1609_4 ReceivedUnicastPackets 0
scalar TestScenario.uninfected[159].nic.mac1609_4 ReceivedBroadcasts 24
scalar TestScenario.uninfected[159].nic.mac1609_4 SentPackets 69
scalar TestScenario.uninfected[159].nic.mac1609_4 SentAcknowledgements 0
scalar TestScenario.uninfected[159].nic.mac1609_4 SNIRLostPackets 703
scalar TestScenario.uninfected[159].nic.mac1609_4 RXTXLostPackets 856
scalar TestScenario.uninfected[159].nic.mac1609_4 TotalLostPackets 1559
scalar TestScenario.uninfected[159].nic.mac1609_4 DroppedPacketsInMac 0
scalar TestScenario.uninfected[159].nic.mac1609_4 TooLittleTime 0
scalar TestScenario.uninfected[159].nic.mac1609_4 TimesIntoBackoff 69
scalar TestScenario.uninfected[159].nic.mac1609_4 SlotsBackoff 93
scalar TestScenario.uninfected[159].nic.mac1609_4 NumInternalContention 0
scalar TestScenario.uninfected[159].nic.mac1609_4 totalBusyTime 0.026588472146
scalar TestScenario.uninfected[159].veinsmobility startTime 161
scalar TestScenario.uninfected[159].veinsmobility totalTime 67
scalar TestScenario.uninfected[159].veinsmobility stopTime 229
scalar TestScenario.uninfected[159].veinsmobility minSpeed 3.4731723869201
scalar TestScenario.uninfected[159].veinsmobility maxSpeed 13.889548919902
scalar TestScenario.uninfected[159].veinsmobility totalDistance 749.65205557551
scalar TestScenario.uninfected[159].veinsmobility totalCO2Emission 205.38543016175
scalar TestScenario.uninfected[123].appl generatedWSMs 34
scalar TestScenario.uninfected[123].appl receivedWSMs 38
scalar TestScenario.uninfected[123].appl generatedBSMs 75
scalar TestScenario.uninfected[123].appl receivedBSMs 9
scalar TestScenario.uninfected[123].appl generatedWSAs 0
scalar TestScenario.uninfected[123].appl receivedWSAs 0
scalar TestScenario.uninfected[123].nic.phy80211p busyTime 0.0021857523809524
scalar TestScenario.uninfected[123].nic.mac1609_4 ReceivedUnicastPackets 0
scalar TestScenario.uninfected[123].nic.mac1609_4 ReceivedBroadcasts 47
scalar TestScenario.uninfected[123].nic.mac1609_4 SentPackets 109
scalar TestScenario.uninfected[123].nic.mac1609_4 SentAcknowledgements 0
scalar TestScenario.uninfected[123].nic.mac1609_4 SNIRLostPackets 1695
scalar TestScenario.uninfected[123].nic.mac1609_4 RXTXLostPackets 2070
scalar TestScenario.uninfected[123].nic.mac1609_4 TotalLostPackets 3765
scalar TestScenario.uninfected[123].nic.mac1609_4 DroppedPacketsInMac 0
scalar TestScenario.uninfected[123].nic.mac1609_4 TooLittleTime 0
scalar TestScenario.uninfected[123].nic.mac1609_4 TimesIntoBackoff 109
scalar TestScenario.uninfected[123].nic.mac1609_4 SlotsBackoff 167
scalar TestScenario.uninfected[123].nic.mac1609_4 NumInternalContention 0
scalar TestScenario.uninfected[123].nic.mac1609_4 totalBusyTime 0.050915001428
scalar TestScenario.uninfected[123].veinsmobility startTime 125
scalar TestScenario.uninfected[123].veinsmobility totalTime 104
scalar TestScenario.uninfected[123].veinsmobility stopTime 230
scalar TestScenario.uninfected[123].veinsmobility minSpeed 5.5611976590484e-012
scalar TestScenario.uninfected[123].veinsmobility maxSpeed 13.889941821969
scalar TestScenario.uninfected[123].veinsmobility totalDistance 1168.043117879
scalar TestScenario.uninfected[123].veinsmobility totalCO2Emission 275.66677638014
scalar TestScenario.uninfected[153].appl generatedWSMs 8
scalar TestScenario.uninfected[153].appl receivedWSMs 18
scalar TestScenario.uninfected[153].appl generatedBSMs 69
scalar TestScenario.uninfected[153].appl receivedBSMs 11
scalar TestScenario.uninfected[153].appl generatedWSAs 0
scalar TestScenario.uninfected[153].appl receivedWSAs 0
scalar TestScenario.uninfected[153].nic.phy80211p busyTime 0.0020582105263158
scalar TestScenario.uninfected[153].nic.mac1609_4 ReceivedUnicastPackets 0
scalar TestScenario.uninfected[153].nic.mac1609_4 ReceivedBroadcasts 29
scalar TestScenario.uninfected[153].nic.mac1609_4 SentPackets 77
scalar TestScenario.uninfected[153].nic.mac1609_4 SentAcknowledgements 0
scalar TestScenario.uninfected[153].nic.mac1609_4 SNIRLostPackets 1087
scalar TestScenario.uninfected[153].nic.mac1609_4 RXTXLostPackets 928
scalar TestScenario.uninfected[153].nic.mac1609_4 TotalLostPackets 2015
scalar TestScenario.uninfected[153].nic.mac1609_4 DroppedPacketsInMac 0
scalar TestScenario.uninfected[153].nic.mac1609_4 TooLittleTime 0
scalar TestScenario.uninfected[153].nic.mac1609_4 TimesIntoBackoff 78
scalar TestScenario.uninfected[153].nic.mac1609_4 SlotsBackoff 137
scalar TestScenario.uninfected[153].nic.mac1609_4 NumInternalContention 0
scalar TestScenario.uninfected[153].nic.mac1609_4 totalBusyTime 0.032876420611
scalar TestScenario.uninfected[153].veinsmobility startTime 155
scalar TestScenario.uninfected[153].veinsmobility totalTime 75
scalar TestScenario.uninfected[153].veinsmobility stopTime 231
scalar TestScenario.uninfected[153].veinsmobility minSpeed 0.5629785480593
scalar TestScenario.uninfected[153].veinsmobility maxSpeed 13.88884975218
scalar TestScenario.uninfected[153].veinsmobility totalDistance 757.83481027238
scalar TestScenario.uninfected[153].veinsmobility totalCO2Emission 213.4619573676
scalar TestScenario.uninfected[106].appl generatedWSMs 3
scalar TestScenario.uninfected[106].appl receivedWSMs 31
scalar TestScenario.uninfected[106].appl generatedBSMs 124
scalar TestScenario.uninfected[106].appl receivedBSMs 17
scalar TestScenario.uninfected[106].appl generatedWSAs 0
scalar TestScenario.uninfected[106].appl receivedWSAs 0
scalar TestScenario.uninfected[106].nic.phy80211p busyTime 0.001258752
scalar TestScenario.uninfected[106].nic.mac1609_4 ReceivedUnicastPackets 0
scalar TestScenario.uninfected[106].nic.mac1609_4 ReceivedBroadcasts 48
scalar TestScenario.uninfected[106].nic.mac1609_4 SentPackets 127
scalar TestScenario.uninfected[106].nic.mac1609_4 SentAcknowledgements 0
scalar TestScenario.uninfected[106].nic.mac1609_4 SNIRLostPackets 1095
scalar TestScenario.uninfected[106].nic.mac1609_4 RXTXLostPackets 1577
scalar TestScenario.uninfected[106].nic.mac1609_4 TotalLostPackets 2672
scalar TestScenario.uninfected[106].nic.mac1609_4 DroppedPacketsInMac 0
scalar TestScenario.uninfected[106].nic.mac1609_4 TooLittleTime 0
scalar TestScenario.uninfected[106].nic.mac1609_4 TimesIntoBackoff 127
scalar TestScenario.uninfected[106].nic.mac1609_4 SlotsBackoff 181
scalar TestScenario.uninfected[106].nic.mac1609_4 NumInternalContention 0
scalar TestScenario.uninfected[106].nic.mac1609_4 totalBusyTime 0.0456714146
scalar TestScenario.uninfected[106].veinsmobility startTime 107
scalar TestScenario.uninfected[106].veinsmobility totalTime 124
scalar TestScenario.uninfected[106].veinsmobility stopTime 232
scalar TestScenario.uninfected[106].veinsmobility minSpeed 3.7943176868344
scalar TestScenario.uninfected[106].veinsmobility maxSpeed 13.889533066894
scalar TestScenario.uninfected[106].veinsmobility totalDistance 1579.8750748531
scalar TestScenario.uninfected[106].veinsmobility totalCO2Emission 304.558972026
scalar TestScenario.uninfected[114].appl generatedWSMs 23
scalar TestScenario.uninfected[114].appl receivedWSMs 37
scalar TestScenario.uninfected[114].appl generatedBSMs 98
scalar TestScenario.uninfected[114].appl receivedBSMs 7
scalar TestScenario.uninfected[114].appl generatedWSAs 0
scalar TestScenario.uninfected[114].appl receivedWSAs 0
scalar TestScenario.uninfected[114].nic.phy80211p busyTime 0.00158
scalar TestScenario.uninfected[114].nic.mac1609_4 ReceivedUnicastPackets 0
scalar TestScenario.uninfected[114].nic.mac1609_4 ReceivedBroadcasts 44
scalar TestScenario.uninfected[114].nic.mac1609_4 SentPackets 121
scalar TestScenario.uninfected[114].nic.mac1609_4 SentAcknowledgements 0
scalar TestScenario.uninfected[114].nic.mac1609_4 SNIRLostPackets 1330
scalar TestScenario.uninfected[114].nic.mac1609_4 RXTXLostPackets 1591
scalar TestScenario.uninfected[114].nic.mac1609_4 TotalLostPackets 2921
scalar TestScenario.uninfected[114].nic.mac1609_4 DroppedPacketsInMac 0
scalar TestScenario.uninfected[114].nic.mac1609_4 TooLittleTime 0
scalar TestScenario.uninfected[114].nic.mac1609_4 TimesIntoBackoff 121
scalar TestScenario.uninfected[114].nic.mac1609_4 SlotsBackoff 168
scalar TestScenario.uninfected[114].nic.mac1609_4 NumInternalContention 0
scalar TestScenario.uninfected[114].nic.mac1609_4 totalBusyTime 0.051846121294
scalar TestScenario.uninfected[114].veinsmobility startTime 116
scalar TestScenario.uninfected[114].veinsmobility totalTime 115
scalar TestScenario.uninfected[114].veinsmobility stopTime 232
scalar TestScenario.uninfected[114].veinsmobility minSpeed 0
scalar TestScenario.uninfected[114].veinsmobility maxSpeed 13.88807185943
scalar TestScenario.uninfected[114].veinsmobility totalDistance 957.86832346989
scalar TestScenario.uninfected[114].veinsmobility totalCO2Emission 278.27116794712
scalar TestScenario.uninfected[163].appl generatedWSMs 25
scalar TestScenario.uninfected[163].appl receivedWSMs 21
scalar TestScenario.uninfected[163].appl generatedBSMs 51
scalar TestScenario.uninfected[163].appl receivedBSMs 8
scalar TestScenario.uninfected[163].appl generatedWSAs 0
scalar TestScenario.uninfected[163].appl receivedWSAs 0
scalar TestScenario.uninfected[163].nic.phy80211p busyTime 0.0023972571428572
scalar TestScenario.uninfected[163].nic.mac1609_4 ReceivedUnicastPackets 0
scalar TestScenario.uninfected[163].nic.mac1609_4 ReceivedBroadcasts 29
scalar TestScenario.uninfected[163].nic.mac1609_4 SentPackets 76
scalar TestScenario.uninfected[163].nic.mac1609_4 SentAcknowledgements 0
scalar TestScenario.uninfected[163].nic.mac1609_4 SNIRLostPackets 1252
scalar TestScenario.uninfected[163].nic.mac1609_4 RXTXLostPackets 1258
scalar TestScenario.uninfected[163].nic.mac1609_4 TotalLostPackets 2510
scalar TestScenario.uninfected[163].nic.mac1609_4 DroppedPacketsInMac 0
scalar TestScenario.uninfected[163].nic.mac1609_4 TooLittleTime 0
scalar TestScenario.uninfected[163].nic.mac1609_4 TimesIntoBackoff 76
scalar TestScenario.uninfected[163].nic.mac1609_4 SlotsBackoff 105
scalar TestScenario.uninfected[163].nic.mac1609_4 NumInternalContention 0
scalar TestScenario.uninfected[163].nic.mac1609_4 totalBusyTime 0.034418927566
scalar TestScenario.uninfected[163].veinsmobility startTime 164
scalar TestScenario.uninfected[163].veinsmobility totalTime 69
scalar TestScenario.uninfected[163].veinsmobility stopTime 234
scalar TestScenario.uninfected[163].veinsmobility minSpeed 3.3765413245529
scalar TestScenario.uninfected[163].veinsmobility maxSpeed 13.882195353403
scalar TestScenario.uninfected[163].veinsmobility totalDistance 752.01221600873
scalar TestScenario.uninfected[163].veinsmobility totalCO2Emission 208.11912791656
scalar TestScenario.uninfected[131].appl generatedWSMs 10
scalar TestScenario.uninfected[131].appl receivedWSMs 27
scalar TestScenario.uninfected[131].appl generatedBSMs 99
scalar TestScenario.uninfected[131].appl receivedBSMs 6
scalar TestScenario.uninfected[131].appl generatedWSAs 0
scalar TestScenario.uninfected[131].appl receivedWSAs 0
scalar TestScenario.uninfected[131].nic.phy80211p busyTime 0.0012699805825243
scalar TestScenario.uninfected[131].nic.mac1609_4 ReceivedUnicastPackets 0
scalar TestScenario.uninfected[131].nic.mac1609_4 ReceivedBroadcasts 33
scalar TestScenario.uninfected[131].nic.mac1609_4 SentPackets 109
scalar TestScenario.uninfected[131].nic.mac1609_4 SentAcknowledgements 0
scalar TestScenario.uninfected[131].nic.mac1609_4 SNIRLostPackets 900
scalar TestScenario.uninfected[131].nic.mac1609_4 RXTXLostPackets 1027
scalar TestScenario.uninfected[131].nic.mac1609_4 TotalLostPackets 1927
scalar TestScenario.uninfected[131].nic.mac1609_4 DroppedPacketsInMac 0
scalar TestScenario.uninfected[131].nic.mac1609_4 TooLittleTime 0
scalar TestScenario.uninfected[131].nic.mac1609_4 TimesIntoBackoff 109
scalar TestScenario.uninfected[131].nic.mac1609_4 SlotsBackoff 164
scalar TestScenario.uninfected[131].nic.mac1609_4 NumInternalContention 0
scalar TestScenario.uninfected[131].nic.mac1609_4 totalBusyTime 0.039177706381
scalar TestScenario.uninfected[131].veinsmobility startTime 132
scalar TestScenario.uninfected[131].veinsmobility totalTime 102
scalar TestScenario.uninfected[131].veinsmobility stopTime 235
scalar TestScenario.uninfected[131].veinsmobility minSpeed 0.43418053886562
scalar TestScenario.uninfected[131].veinsmobility maxSpeed 13.889194944731
scalar TestScenario.uninfected[131].veinsmobility totalDistance 1163.288858989
scalar TestScenario.uninfected[131].veinsmobility totalCO2Emission 252.17043305033
scalar TestScenario.uninfected[95].appl generatedWSMs 23
scalar TestScenario.uninfected[95].appl receivedWSMs 35
scalar TestScenario.uninfected[95].appl generatedBSMs 119
scalar TestScenario.uninfected[95].appl receivedBSMs 13
scalar TestScenario.uninfected[95].appl generatedWSAs 0
scalar TestScenario.uninfected[95].appl receivedWSAs 0
scalar TestScenario.uninfected[95].nic.phy80211p busyTime 0.0016409855072464
scalar TestScenari