file 4951 1593713958                                            
version 2
run General-0-20200702-15:18:57-23656
attr configname General
attr datetime 20200702-15:18:57
attr experiment General
attr inifile omnetpp.ini
attr iterationvars ""
attr iterationvarsf ""
attr measurement ""
attr network idc.src.TutorialScenario
attr processid 23656
attr repetition 0
attr replication #0
attr resultdir results
attr runnumber 0
attr seedset 0
param *.playgroundSizeX 1000m
param *.playgroundSizeY 1000m
param *.playgroundSizeZ 50m
param *.manager.updateInterval 0.1s
param *.manager.host "\"localhost\""
param *.manager.port 9999
param *.manager.autoShutdown false
param *.manager.moduleType "\"org.car2x.veins.nodes.Car\""
param *.manager.moduleName "\"node\""
param *.manager.moduleDisplayString "\"\""
param *.manager.launchConfig "xmldoc(\"demo.launchd.xml\")"
param *.connectionManager.pMax 20mW
param *.connectionManager.sat -89dBm
param *.connectionManager.alpha 2.0
param *.connectionManager.carrierFrequency "5.890e9 Hz"
param *.connectionManager.sendDirect true
param *.node[*].nicType "\"Nic80211p\""
param *.**.nic.mac1609_4.txPower 20mW
param *.**.nic.mac1609_4.bitrate 18Mbps
param *.**.nic.phy80211p.sensitivity -89dBm
param *.**.nic.phy80211p.useThermalNoise true
param *.**.nic.phy80211p.thermalNoise -110dBm
param *.**.nic.phy80211p.decider "xmldoc(\"config.xml\")"
param *.**.nic.phy80211p.analogueModels "xmldoc(\"config.xml\")"
param *.**.nic.phy80211p.usePropagationDelay true
param *.node[*].applType "\"idc.src.TutorialAppl\""
param *.node[*].appl.dataPriority 2
param *.node[*].veinsmobilityType "\"org.car2x.veins.modules.mobility.traci.TraCIMobility\""
param *.node[*].veinsmobility.x 0
param *.node[*].veinsmobility.y 0
param *.node[*].veinsmobility.z 0
param **.debug false
param **.coreDebug false

vector 0 TutorialScenario.node[0].veinsmobility posx ETV
vector 1 TutorialScenario.node[0].veinsmobility posy ETV
vector 2 TutorialScenario.node[0].veinsmobility speed ETV
vector 3 TutorialScenario.node[0].veinsmobility acceleration ETV
vector 4 TutorialScenario.node[0].veinsmobility co2emission ETV
vector 5 TutorialScenario.node[1].veinsmobility posx ETV
vector 6 TutorialScenario.node[1].veinsmobility posy ETV
vector 7 TutorialScenario.node[1].veinsmobility speed ETV
vector 8 TutorialScenario.node[1].veinsmobility acceleration ETV
vector 9 TutorialScenario.node[1].veinsmobility co2emission ETV
0	2418 416 2 69 0.1 1.7 17 210.10043890075 212.7 3600.6521458411 762641.00382124
1	2834 250 2 69 0.1 1.7 17 23.4 23.4 397.8 9308.52
2	3084 415 4 69 0.2 1.7 16 0.25286542447004 3.2057517985729 29.201362791118 66.360518683997
3	3499 387 7 69 0.3 1.7 15 1.3472384067252 2.4479752470855 29.528863741028 59.578931901062
4	3886 385 7 69 0.3 1.7 15 1.4276208928798 2.8037419185262 31.086375128681 66.407316364878
5	4271 105 40 69 1.1 1.7 7 23.4 23.4 163.8 3832.92
6	4376 162 40 69 1.1 1.7 7 437.3 437.67795292788 3061.9863086664 1339394.4326528
7	4538 156 44 69 1.2 1.7 6 0.2550030377931 1.439883185288 5.2194124640615 5.5433263200128
8	4694 128 49 69 1.3 1.7 5 1.9905365978143 2.5782408907346 11.848801474949 28.303263133454
9	4822 127 49 69 1.3 1.7 5 1.4430186485 1.8704755222226 8.5510642854103 14.752726751608

