version 2
run General-0-20200702-15:18:57-23656
attr configname General
attr datetime 20200702-15:18:57
attr experiment General
attr inifile omnetpp.ini
attr iterationvars ""
attr iterationvarsf ""
attr measurement ""
attr network idc.src.TutorialScenario
attr processid 23656
attr repetition 0
attr replication #0
attr resultdir results
attr runnumber 0
attr seedset 0
param *.playgroundSizeX 1000m
param *.playgroundSizeY 1000m
param *.playgroundSizeZ 50m
param *.manager.updateInterval 0.1s
param *.manager.host "\"localhost\""
param *.manager.port 9999
param *.manager.autoShutdown false
param *.manager.moduleType "\"org.car2x.veins.nodes.Car\""
param *.manager.moduleName "\"node\""
param *.manager.moduleDisplayString "\"\""
param *.manager.launchConfig "xmldoc(\"demo.launchd.xml\")"
param *.connectionManager.pMax 20mW
param *.connectionManager.sat -89dBm
param *.connectionManager.alpha 2.0
param *.connectionManager.carrierFrequency "5.890e9 Hz"
param *.connectionManager.sendDirect true
param *.node[*].nicType "\"Nic80211p\""
param *.**.nic.mac1609_4.txPower 20mW
param *.**.nic.mac1609_4.bitrate 18Mbps
param *.**.nic.phy80211p.sensitivity -89dBm
param *.**.nic.phy80211p.useThermalNoise true
param *.**.nic.phy80211p.thermalNoise -110dBm
param *.**.nic.phy80211p.decider "xmldoc(\"config.xml\")"
param *.**.nic.phy80211p.analogueModels "xmldoc(\"config.xml\")"
param *.**.nic.phy80211p.usePropagationDelay true
param *.node[*].applType "\"idc.src.TutorialAppl\""
param *.node[*].appl.dataPriority 2
param *.node[*].veinsmobilityType "\"org.car2x.veins.modules.mobility.traci.TraCIMobility\""
param *.node[*].veinsmobility.x 0
param *.node[*].veinsmobility.y 0
param *.node[*].veinsmobility.z 0
param **.debug false
param **.coreDebug false

scalar TutorialScenario.node[0].appl generatedWSMs 0
scalar TutorialScenario.node[0].appl receivedWSMs 0
scalar TutorialScenario.node[0].appl generatedBSMs 1
scalar TutorialScenario.node[0].appl receivedBSMs 0
scalar TutorialScenario.node[0].appl generatedWSAs 0
scalar TutorialScenario.node[0].appl receivedWSAs 0
scalar TutorialScenario.node[0].nic.phy80211p busyTime 0
scalar TutorialScenario.node[0].nic.mac1609_4 ReceivedUnicastPackets 0
scalar TutorialScenario.node[0].nic.mac1609_4 ReceivedBroadcasts 0
scalar TutorialScenario.node[0].nic.mac1609_4 SentPackets 1
scalar TutorialScenario.node[0].nic.mac1609_4 SentAcknowledgements 0
scalar TutorialScenario.node[0].nic.mac1609_4 SNIRLostPackets 0
scalar TutorialScenario.node[0].nic.mac1609_4 RXTXLostPackets 0
scalar TutorialScenario.node[0].nic.mac1609_4 TotalLostPackets 0
scalar TutorialScenario.node[0].nic.mac1609_4 DroppedPacketsInMac 0
scalar TutorialScenario.node[0].nic.mac1609_4 TooLittleTime 0
scalar TutorialScenario.node[0].nic.mac1609_4 TimesIntoBackoff 1
scalar TutorialScenario.node[0].nic.mac1609_4 SlotsBackoff 3
scalar TutorialScenario.node[0].nic.mac1609_4 NumInternalContention 0
scalar TutorialScenario.node[0].nic.mac1609_4 totalBusyTime 6.5e-005
scalar TutorialScenario.node[0].veinsmobility startTime 0.1
scalar TutorialScenario.node[0].veinsmobility totalTime 1.6
scalar TutorialScenario.node[0].veinsmobility stopTime 1.700187069109
scalar TutorialScenario.node[0].veinsmobility minSpeed 0.25286542447004
scalar TutorialScenario.node[0].veinsmobility maxSpeed 3.2057517985729
scalar TutorialScenario.node[0].veinsmobility totalDistance 2.9201362791118
scalar TutorialScenario.node[0].veinsmobility totalCO2Emission 3.1086375128681
scalar TutorialScenario.node[1].appl generatedWSMs 0
scalar TutorialScenario.node[1].appl receivedWSMs 0
scalar TutorialScenario.node[1].appl generatedBSMs 0
scalar TutorialScenario.node[1].appl receivedBSMs 0
scalar TutorialScenario.node[1].appl generatedWSAs 0
scalar TutorialScenario.node[1].appl receivedWSAs 0
scalar TutorialScenario.node[1].nic.phy80211p busyTime 0
scalar TutorialScenario.node[1].nic.mac1609_4 ReceivedUnicastPackets 0
scalar TutorialScenario.node[1].nic.mac1609_4 ReceivedBroadcasts 0
scalar TutorialScenario.node[1].nic.mac1609_4 SentPackets 0
scalar TutorialScenario.node[1].nic.mac1609_4 SentAcknowledgements 0
scalar TutorialScenario.node[1].nic.mac1609_4 SNIRLostPackets 0
scalar TutorialScenario.node[1].nic.mac1609_4 RXTXLostPackets 0
scalar TutorialScenario.node[1].nic.mac1609_4 TotalLostPackets 0
scalar TutorialScenario.node[1].nic.mac1609_4 DroppedPacketsInMac 0
scalar TutorialScenario.node[1].nic.mac1609_4 TooLittleTime 0
scalar TutorialScenario.node[1].nic.mac1609_4 TimesIntoBackoff 0
scalar TutorialScenario.node[1].nic.mac1609_4 SlotsBackoff 0
scalar TutorialScenario.node[1].nic.mac1609_4 NumInternalContention 0
scalar TutorialScenario.node[1].nic.mac1609_4 totalBusyTime 0
scalar TutorialScenario.node[1].veinsmobility startTime 1.1
scalar TutorialScenario.node[1].veinsmobility totalTime 0.6
scalar TutorialScenario.node[1].veinsmobility stopTime 1.700187069109
scalar TutorialScenario.node[1].veinsmobility minSpeed 0.2550030377931
scalar TutorialScenario.node[1].veinsmobility maxSpeed 1.439883185288
scalar TutorialScenario.node[1].veinsmobility totalDistance 0.52194124640613
scalar TutorialScenario.node[1].veinsmobility totalCO2Emission 0.85510642854103
scalar TutorialScenario.manager roiArea 0

