version 2
run General-0-20200729-15:25:38-26184
attr configname General
attr datetime 20200729-15:25:38
attr experiment General
attr inifile omnetpp.ini
attr iterationvars ""
attr iterationvarsf ""
attr measurement ""
attr network sim1.src.TestScenario
attr processid 26184
attr repetition 0
attr replication #0
attr resultdir results
attr runnumber 0
attr seedset 0
param *.playgroundSizeX 1000m
param *.playgroundSizeY 1000m
param *.playgroundSizeZ 50m
param *.manager.moduleType "\"exploited=org.car2x.veins.nodes.Car *=org.car2x.veins.nodes.Car\""
param *.manager.moduleName "\"exploited=exploited *=uninfected\""
param *.manager.updateInterval 1s
param *.manager.host "\"localhost\""
param *.manager.port 9999
param *.manager.autoShutdown true
param *.manager.launchConfig "xmldoc(\"demo.launchd.xml\")"
param *.connectionManager.sendDirect true
param *.connectionManager.maxInterfDist 300m
param *.connectionManager.drawMaxIntfDist false
param *.**.nic.mac1609_4.useServiceChannel false
param *.**.nic.mac1609_4.txPower 20mW
param *.**.nic.mac1609_4.bitrate 6Mbps
param *.**.nic.phy80211p.sensitivity -89dBm
param *.**.nic.phy80211p.useThermalNoise true
param *.**.nic.phy80211p.thermalNoise -110dBm
param *.**.nic.phy80211p.decider "xmldoc(\"config.xml\")"
param *.**.nic.phy80211p.analogueModels "xmldoc(\"config.xml\")"
param *.**.nic.phy80211p.usePropagationDelay true
param *.**.nic.phy80211p.antenna "xmldoc(\"antenna.xml\", \"/root/Antenna[@id='monopole']\")"
param *.uninfected[*].applType "\"sim1.src.Uninfected\""
param *.uninfected[*].appl.dataPriority 2
param *.uninfected[*].appl.headerLength "80 bit"
param *.uninfected[*].appl.sendBeacons false
param *.uninfected[*].appl.dataOnSch false
param *.uninfected[*].appl.beaconInterval 1s
param *.uninfected[*].veinsmobilityType.debug true
param *.uninfected[*].veinsmobility.x 0
param *.uninfected[*].veinsmobility.y 0
param *.uninfected[*].veinsmobility.z 0
param *.exploited[*].applType "\"sim1.src.Exploited\""
param *.exploited[*].appl.dataPriority 2
param *.exploited[*].appl.headerLength "80 bit"
param *.exploited[*].appl.sendBeacons false
param *.exploited[*].appl.dataOnSch false
param *.exploited[*].appl.beaconInterval 1s
param *.exploited[*].veinsmobilityType.debug true
param *.exploited[*].veinsmobility.x 0
param *.exploited[*].veinsmobility.y 0
param *.exploited[*].veinsmobility.z 0

vector 0 TestScenario.uninfected[0].veinsmobility posx ETV
vector 1 TestScenario.uninfected[0].veinsmobility posy ETV
vector 2 TestScenario.uninfected[1].veinsmobility posx ETV
vector 3 TestScenario.uninfected[1].veinsmobility posy ETV
vector 4 TestScenario.uninfected[0].veinsmobility speed ETV
vector 5 TestScenario.uninfected[2].veinsmobility posx ETV
vector 6 TestScenario.uninfected[2].veinsmobility posy ETV
vector 7 TestScenario.uninfected[0].veinsmobility acceleration ETV
vector 8 TestScenario.uninfected[0].veinsmobility co2emission ETV
vector 9 TestScenario.uninfected[1].veinsmobility speed ETV
vector 10 TestScenario.uninfected[3].veinsmobility posx ETV
vector 11 TestScenario.uninfected[3].veinsmobility posy ETV
vector 12 TestScenario.uninfected[1].veinsmobility acceleration ETV
vector 13 TestScenario.uninfected[1].veinsmobility co2emission ETV
vector 14 TestScenario.uninfected[2].veinsmobility speed ETV
vector 15 TestScenario.uninfected[4].veinsmobility posx ETV
vector 16 TestScenario.uninfected[4].veinsmobility posy ETV
vector 17 TestScenario.uninfected[2].veinsmobility acceleration ETV
vector 18 TestScenario.uninfected[2].veinsmobility co2emission ETV
vector 19 TestScenario.uninfected[3].veinsmobility speed ETV
vector 20 TestScenario.uninfected[5].veinsmobility posx ETV
vector 21 TestScenario.uninfected[5].veinsmobility posy ETV
vector 22 TestScenario.uninfected[3].veinsmobility acceleration ETV
vector 23 TestScenario.uninfected[3].veinsmobility co2emission ETV
vector 24 TestScenario.uninfected[4].veinsmobility speed ETV
vector 25 TestScenario.uninfected[6].veinsmobility posx ETV
vector 26 TestScenario.uninfected[6].veinsmobility posy ETV
vector 27 TestScenario.uninfected[4].veinsmobility acceleration ETV
vector 28 TestScenario.uninfected[4].veinsmobility co2emission ETV
vector 29 TestScenario.uninfected[5].veinsmobility speed ETV
vector 30 TestScenario.uninfected[7].veinsmobility posx ETV
vector 31 TestScenario.uninfected[7].veinsmobility posy ETV
vector 32 TestScenario.uninfected[5].veinsmobility acceleration ETV
vector 33 TestScenario.uninfected[5].veinsmobility co2emission ETV
vector 34 TestScenario.uninfected[6].veinsmobility speed ETV
vector 35 TestScenario.uninfected[8].veinsmobility posx ETV
vector 36 TestScenario.uninfected[8].veinsmobility posy ETV
vector 37 TestScenario.uninfected[6].veinsmobility acceleration ETV
vector 38 TestScenario.uninfected[6].veinsmobility co2emission ETV
vector 39 TestScenario.uninfected[7].veinsmobility speed ETV
vector 40 TestScenario.uninfected[9].veinsmobility posx ETV
vector 41 TestScenario.uninfected[9].veinsmobility posy ETV
vector 42 TestScenario.uninfected[7].veinsmobility acceleration ETV
vector 43 TestScenario.uninfected[7].veinsmobility co2emission ETV
vector 44 TestScenario.uninfected[8].veinsmobility speed ETV
vector 45 TestScenario.uninfected[10].veinsmobility posx ETV
vector 46 TestScenario.uninfected[10].veinsmobility posy ETV
vector 47 TestScenario.uninfected[8].veinsmobility acceleration ETV
vector 48 TestScenario.uninfected[8].veinsmobility co2emission ETV
vector 49 TestScenario.uninfected[9].veinsmobility speed ETV
vector 50 TestScenario.uninfected[11].veinsmobility posx ETV
vector 51 TestScenario.uninfected[11].veinsmobility posy ETV
vector 52 TestScenario.uninfected[9].veinsmobility acceleration ETV
vector 53 TestScenario.uninfected[9].veinsmobility co2emission ETV
vector 54 TestScenario.uninfected[10].veinsmobility speed ETV
vector 55 TestScenario.uninfected[12].veinsmobility posx ETV
vector 56 TestScenario.uninfected[12].veinsmobility posy ETV
vector 57 TestScenario.uninfected[10].veinsmobility acceleration ETV
vector 58 TestScenario.uninfected[10].veinsmobility co2emission ETV
vector 59 TestScenario.uninfected[11].veinsmobility speed ETV
vector 60 TestScenario.uninfected[13].veinsmobility posx ETV
vector 61 TestScenario.uninfected[13].veinsmobility posy ETV
vector 62 TestScenario.uninfected[11].veinsmobility acceleration ETV
vector 63 TestScenario.uninfected[11].veinsmobility co2emission ETV
vector 64 TestScenario.uninfected[12].veinsmobility speed ETV
vector 65 TestScenario.uninfected[14].veinsmobility posx ETV
vector 66 TestScenario.uninfected[14].veinsmobility posy ETV
vector 67 TestScenario.uninfected[12].veinsmobility acceleration ETV
vector 68 TestScenario.uninfected[12].veinsmobility co2emission ETV
vector 69 TestScenario.uninfected[13].veinsmobility speed ETV
vector 70 TestScenario.uninfected[15].veinsmobility posx ETV
vector 71 TestScenario.uninfected[15].veinsmobility posy ETV
vector 72 TestScenario.uninfected[13].veinsmobility acceleration ETV
vector 73 TestScenario.uninfected[13].veinsmobility co2emission ETV
vector 74 TestScenario.uninfected[14].veinsmobility speed ETV
vector 75 TestScenario.uninfected[16].veinsmobility posx ETV
vector 76 TestScenario.uninfected[16].veinsmobility posy ETV
vector 77 TestScenario.uninfected[14].veinsmobility acceleration ETV
vector 78 TestScenario.uninfected[14].veinsmobility co2emission ETV
vector 79 TestScenario.uninfected[15].veinsmobility speed ETV
vector 80 TestScenario.uninfected[17].veinsmobility posx ETV
vector 81 TestScenario.uninfected[17].veinsmobility posy ETV
vector 82 TestScenario.uninfected[15].veinsmobility acceleration ETV
vector 83 TestScenario.uninfected[15].veinsmobility co2emission ETV
vector 84 TestScenario.uninfected[16].veinsmobility speed ETV
vector 85 TestScenario.uninfected[18].veinsmobility posx ETV
vector 86 TestScenario.uninfected[18].veinsmobility posy ETV
vector 87 TestScenario.uninfected[16].veinsmobility acceleration ETV
vector 88 TestScenario.uninfected[16].veinsmobility co2emission ETV
vector 89 TestScenario.uninfected[17].veinsmobility speed ETV
vector 90 TestScenario.uninfected[19].veinsmobility posx ETV
vector 91 TestScenario.uninfected[19].veinsmobility posy ETV
vector 92 TestScenario.uninfected[17].veinsmobility acceleration ETV
vector 93 TestScenario.uninfected[17].veinsmobility co2emission ETV
vector 94 TestScenario.uninfected[18].veinsmobility speed ETV
vector 95 TestScenario.uninfected[20].veinsmobility posx ETV
vector 96 TestScenario.uninfected[20].veinsmobility posy ETV
vector 97 TestScenario.uninfected[18].veinsmobility acceleration ETV
vector 98 TestScenario.uninfected[18].veinsmobility co2emission ETV
vector 99 TestScenario.uninfected[19].veinsmobility speed ETV
vector 100 TestScenario.uninfected[21].veinsmobility posx ETV
vector 101 TestScenario.uninfected[21].veinsmobility posy ETV
vector 102 TestScenario.uninfected[19].veinsmobility acceleration ETV
vector 103 TestScenario.uninfected[19].veinsmobility co2emission ETV
vector 104 TestScenario.uninfected[20].veinsmobility speed ETV
vector 105 TestScenario.uninfected[22].veinsmobility posx ETV
vector 106 TestScenario.uninfected[22].veinsmobility posy ETV
vector 107 TestScenario.uninfected[20].veinsmobility acceleration ETV
vector 108 TestScenario.uninfected[20].veinsmobility co2emission ETV
vector 109 TestScenario.uninfected[21].veinsmobility speed ETV
vector 110 TestScenario.uninfected[23].veinsmobility posx ETV
vector 111 TestScenario.uninfected[23].veinsmobility posy ETV
vector 112 TestScenario.uninfected[21].veinsmobility acceleration ETV
vector 113 TestScenario.uninfected[21].veinsmobility co2emission ETV
vector 114 TestScenario.uninfected[22].veinsmobility speed ETV
vector 115 TestScenario.uninfected[24].veinsmobility posx ETV
vector 116 TestScenario.uninfected[24].veinsmobility posy ETV
vector 117 TestScenario.uninfected[22].veinsmobility acceleration ETV
vector 118 TestScenario.uninfected[22].veinsmobility co2emission ETV
vector 119 TestScenario.uninfected[23].veinsmobility speed ETV
vector 120 TestScenario.uninfected[25].veinsmobility posx ETV
vector 121 TestScenario.uninfected[25].veinsmobility posy ETV
vector 122 TestScenario.uninfected[23].veinsmobility acceleration ETV
vector 123 TestScenario.uninfected[23].veinsmobility co2emission ETV
vector 124 TestScenario.uninfected[24].veinsmobility speed ETV
vector 125 TestScenario.uninfected[26].veinsmobility posx ETV
vector 126 TestScenario.uninfected[26].veinsmobility posy ETV
vector 127 TestScenario.uninfected[24].veinsmobility acceleration ETV
vector 128 TestScenario.uninfected[24].veinsmobility co2emission ETV
vector 129 TestScenario.uninfected[25].veinsmobility speed ETV
vector 130 TestScenario.uninfected[27].veinsmobility posx ETV
vector 131 TestScenario.uninfected[27].veinsmobility posy ETV
vector 132 TestScenario.uninfected[25].veinsmobility acceleration ETV
vector 133 TestScenario.uninfected[25].veinsmobility co2emission ETV
vector 134 TestScenario.uninfected[26].veinsmobility speed ETV
vector 135 TestScenario.uninfected[28].veinsmobility posx ETV
vector 136 TestScenario.uninfected[28].veinsmobility posy ETV
vector 137 TestScenario.uninfected[26].veinsmobility acceleration ETV
vector 138 TestScenario.uninfected[26].veinsmobility co2emission ETV
vector 139 TestScenario.uninfected[27].veinsmobility speed ETV
vector 140 TestScenario.uninfected[29].veinsmobility posx ETV
vector 141 TestScenario.uninfected[29].veinsmobility posy ETV
vector 142 TestScenario.uninfected[27].veinsmobility acceleration ETV
vector 143 TestScenario.uninfected[27].veinsmobility co2emission ETV
vector 144 TestScenario.uninfected[28].veinsmobility speed ETV
vector 145 TestScenario.uninfected[30].veinsmobility posx ETV
vector 146 TestScenario.uninfected[30].veinsmobility posy ETV
vector 147 TestScenario.uninfected[28].veinsmobility acceleration ETV
vector 148 TestScenario.uninfected[28].veinsmobility co2emission ETV
vector 149 TestScenario.uninfected[29].veinsmobility speed ETV
vector 150 TestScenario.uninfected[31].veinsmobility posx ETV
vector 151 TestScenario.uninfected[31].veinsmobility posy ETV
vector 152 TestScenario.uninfected[29].veinsmobility acceleration ETV
vector 153 TestScenario.uninfected[29].veinsmobility co2emission ETV
vector 154 TestScenario.uninfected[30].veinsmobility speed ETV
vector 155 TestScenario.uninfected[32].veinsmobility posx ETV
vector 156 TestScenario.uninfected[32].veinsmobility posy ETV
vector 157 TestScenario.uninfected[30].veinsmobility acceleration ETV
vector 158 TestScenario.uninfected[30].veinsmobility co2emission ETV
vector 159 TestScenario.uninfected[31].veinsmobility speed ETV
vector 160 TestScenario.uninfected[33].veinsmobility posx ETV
vector 161 TestScenario.uninfected[33].veinsmobility posy ETV
vector 162 TestScenario.uninfected[31].veinsmobility acceleration ETV
vector 163 TestScenario.uninfected[31].veinsmobility co2emission ETV
vector 164 TestScenario.uninfected[32].veinsmobility speed ETV
vector 165 TestScenario.uninfected[34].veinsmobility posx ETV
vector 166 TestScenario.uninfected[34].veinsmobility posy ETV
vector 167 TestScenario.uninfected[32].veinsmobility acceleration ETV
vector 168 TestScenario.uninfected[32].veinsmobility co2emission ETV
vector 169 TestScenario.uninfected[33].veinsmobility speed ETV
vector 170 TestScenario.uninfected[35].veinsmobility posx ETV
vector 171 TestScenario.uninfected[35].veinsmobility posy ETV
vector 172 TestScenario.uninfected[33].veinsmobility acceleration ETV
vector 173 TestScenario.uninfected[33].veinsmobility co2emission ETV
vector 174 TestScenario.uninfected[34].veinsmobility speed ETV
vector 175 TestScenario.uninfected[36].veinsmobility posx ETV
vector 176 TestScenario.uninfected[36].veinsmobility posy ETV
vector 177 TestScenario.uninfected[34].veinsmobility acceleration ETV
vector 178 TestScenario.uninfected[34].veinsmobility co2emission ETV
vector 179 TestScenario.uninfected[35].veinsmobility speed ETV
vector 180 TestScenario.uninfected[37].veinsmobility posx ETV
vector 181 TestScenario.uninfected[37].veinsmobility posy ETV
vector 182 TestScenario.uninfected[35].veinsmobility acceleration ETV
vector 183 TestScenario.uninfected[35].veinsmobility co2emission ETV
vector 184 TestScenario.uninfected[36].veinsmobility speed ETV
vector 185 TestScenario.uninfected[38].veinsmobility posx ETV
vector 186 TestScenario.uninfected[38].veinsmobility posy ETV
vector 187 TestScenario.uninfected[36].veinsmobility acceleration ETV
vector 188 TestScenario.uninfected[36].veinsmobility co2emission ETV
vector 189 TestScenario.uninfected[37].veinsmobility speed ETV
123	9321	26	4.3424196864163
123	10247	27	5.1664336745192
123	11254	28	6.7482901847414
123	12360	29	7.2172164259374
123	13512	30	7.8248594772988
123	14793	31	2.7263996159557
123	16305	32	1.8404058298701
123	17890	33	2.1226303448055
123	19646	34	1.7883051911535
123	21273	35	2.2985564711867
123	23064	36	1.7046288362581
123	24818	37	2.2277436770704
123	26662	38	2.1484184728046
123	28549	39	1.8978022653804
122	9321	26	2.0080248463456
122	10247	27	1.8973841195507
122	11254	28	2.0943918044725
122	12360	29	1.8746404519398
122	13512	30	1.7666099970415
122	14793	31	0.2092885487923
122	16305	32	-0.054180569397285
122	17890	33	0.029569066087715
122	19646	34	-0.068823804652784
122	21273	35	0.081791379300411
122	23064	36	-0.09373022872256
122	24818	37	0.061715465998276
122	26662	38	0.036709342610557
122	28549	39	-0.037229535290971
119	8418	25	4.0277950379694
119	9321	26	6.0358198843151
119	10247	27	7.9332040038658
119	11254	28	10.027595808338
119	12360	29	11.902236260278
119	13512	30	13.66884625732
119	14793	31	13.878134806112
119	16305	32	13.823954236715
119	17890	33	13.853523302802
119	19646	34	13.78469949815
119	21273	35	13.86649087745
119	23064	36	13.772760648727
119	24818	37	13.834476114726
119	26662	38	13.871185457336
119	28549	39	13.833955922045
111	7536	24	823.4
111	8418	25	823.4
111	9321	26	823.4
111	10247	27	823.4
111	11254	28	823.4
111	12360	29	823.4
111	13512	30	823.4
111	14793	31	823.4
111	16305	32	823.4
111	17890	33	823.4
111	19646	34	823.4
111	21273	35	823.4
111	23064	36	823.4
111	24818	37	823.4
111	26662	38	823.4
111	28549	39	823.4
110	7536	24	611.61766712898
110	8418	25	611.61766712898
110	9321	26	608.40184443927
110	10247	27	603.28697662879
110	11254	28	596.14748634045
110	12360	29	587.09872194205
110	13512	30	576.03480381814
110	14793	31	563.13441331759
110	16305	32	549.30460298153
110	17890	33	535.47055606413
110	19646	34	521.65201557554
110	21273	35	507.82794321244
110	23064	36	494.00950867297
110	24818	37	480.17831491164
110	26662	38	466.36972520999
110	28549	39	452.54479423958
vector 190 TestScenario.uninfected[39].veinsmobility posx ETV
vector 191 TestScenario.uninfected[39].veinsmobility posy ETV
vector 192 TestScenario.uninfected[37].veinsmobility acceleration ETV
vector 193 TestScenario.uninfected[37].veinsmobility co2emission ETV
vector 194 TestScenario.uninfected[38].veinsmobility speed ETV
vector 195 TestScenario.uninfected[40].veinsmobility posx ETV
vector 196 TestScenario.uninfected[40].veinsmobility posy ETV
vector 197 TestScenario.uninfected[38].veinsmobility acceleration ETV
vector 198 TestScenario.uninfected[38].veinsmobility co2emission ETV
vector 199 TestScenario.uninfected[39].veinsmobility speed ETV
vector 200 TestScenario.uninfected[39].veinsmobility acceleration ETV
vector 201 TestScenario.uninfected[39].veinsmobility co2emission ETV
vector 202 TestScenario.uninfected[40].veinsmobility speed ETV
vector 203 TestScenario.uninfected[41].veinsmobility posx ETV
vector 204 TestScenario.uninfected[41].veinsmobility posy ETV
vector 205 TestScenario.uninfected[42].veinsmobility posx ETV
vector 206 TestScenario.uninfected[42].veinsmobility posy ETV
vector 207 TestScenario.uninfected[40].veinsmobility acceleration ETV
vector 208 TestScenario.uninfected[40].veinsmobility co2emission ETV
vector 209 TestScenario.uninfected[43].veinsmobility posx ETV
vector 210 TestScenario.uninfected[43].veinsmobility posy ETV
vector 211 TestScenario.uninfected[41].veinsmobility speed ETV
vector 212 TestScenario.uninfected[42].veinsmobility speed ETV
vector 213 TestScenario.uninfected[44].veinsmobility posx ETV
vector 214 TestScenario.uninfected[44].veinsmobility posy ETV
vector 215 TestScenario.uninfected[41].veinsmobility acceleration ETV
vector 216 TestScenario.uninfected[41].veinsmobility co2emission ETV
vector 217 TestScenario.uninfected[42].veinsmobility acceleration ETV
vector 218 TestScenario.uninfected[42].veinsmobility co2emission ETV
vector 219 TestScenario.uninfected[43].veinsmobility speed ETV
vector 220 TestScenario.uninfected[45].veinsmobility posx ETV
vector 221 TestScenario.uninfected[45].veinsmobility posy ETV
vector 222 TestScenario.uninfected[43].veinsmobility acceleration ETV
vector 223 TestScenario.uninfected[43].veinsmobility co2emission ETV
vector 224 TestScenario.uninfected[44].veinsmobility speed ETV
vector 225 TestScenario.uninfected[46].veinsmobility posx ETV
vector 226 TestScenario.uninfected[46].veinsmobility posy ETV
vector 227 TestScenario.uninfected[44].veinsmobility acceleration ETV
vector 228 TestScenario.uninfected[44].veinsmobility co2emission ETV
vector 229 TestScenario.uninfected[45].veinsmobility speed ETV
vector 230 TestScenario.uninfected[47].veinsmobility posx ETV
vector 231 TestScenario.uninfected[47].veinsmobility posy ETV
vector 232 TestScenario.uninfected[45].veinsmobility acceleration ETV
vector 233 TestScenario.uninfected[45].veinsmobility co2emission ETV
vector 234 TestScenario.uninfected[46].veinsmobility speed ETV
vector 235 TestScenario.uninfected[48].veinsmobility posx ETV
vector 236 TestScenario.uninfected[48].veinsmobility posy ETV
vector 237 TestScenario.uninfected[46].veinsmobility acceleration ETV
vector 238 TestScenario.uninfected[46].veinsmobility co2emission ETV
vector 239 TestScenario.uninfected[47].veinsmobility speed ETV
vector 240 TestScenario.uninfected[49].veinsmobility posx ETV
vector 241 TestScenario.uninfected[49].veinsmobility posy ETV
vector 242 TestScenario.uninfected[47].veinsmobility acceleration ETV
vector 243 TestScenario.uninfected[47].veinsmobility co2emission ETV
vector 244 TestScenario.uninfected[48].veinsmobility speed ETV
vector 245 TestScenario.uninfected[48].veinsmobility acceleration ETV
vector 246 TestScenario.uninfected[48].veinsmobility co2emission ETV
vector 247 TestScenario.uninfected[49].veinsmobility speed ETV
23	185	6	4.2946323108477
23	273	7	5.11749157018
23	381	8	6.9283691925252
23	524	9	8.0209828473551
23	710	10	7.3321258356079
23	942	11	2.2236044563181
23	1147	12	1.7028164103912
23	1402	13	2.2959736335064
23	1661	14	1.8249777674441
23	1932	15	2.2967249607751
23	2486	16	1.7543548741923
23	2900	17	1.9603287430802
23	3356	18	2.0382277209862
23	3954	19	2.2063019424125
23	4543	20	2.1527687457459
23	5198	21	2.0008563466513
23	5975	22	1.6323518771735
23	6703	23	2.1096800290575
23	7536	24	2.0796027425277
23	8418	25	1.9812550357746
23	9321	26	2.2725269304293
23	10247	27	1.8868276083708
23	11254	28	1.9677574756384
23	12360	29	1.8484391583439
23	13512	30	2.3343164284466
23	14793	31	1.7482994031826
23	16305	32	0.973
23	17890	33	0.973
23	19646	34	0.973
23	21273	35	0.973
23	23064	36	1.6597434121751
23	24818	37	5.2904055825696
23	26662	38	5.4919922459236
23	28549	39	6.3804513957154
23	30499	40	7.9145002921043
23	32569	41	6.0461829441864
23	34610	42	1.9187490442906
23	36657	43	2.2581156030591
23	38882	44	1.8001795964021
23	41356	45	2.0992860568444
23	43711	46	2.057669244914
23	46072	47	2.2242085937102
23	48575	48	2.0141237519389
23	51219	49	1.931411551974
23	53995	50	1.9778822407798
23	56959	51	2.1685727577002
22	185	6	1.9424539956544
22	273	7	1.8580689705699
22	381	8	2.144160495922
22	524	9	2.089649444879
22	710	10	1.5956912460645
22	942	11	0.05914055863861
22	1147	12	-0.094411180203315
22	1402	13	0.081262434874661
22	1661	14	-0.058225373916795
22	1932	15	0.08067412388511
22	2486	16	-0.079487094047945
22	2900	17	-0.017070125031751
22	3356	18	0.0061861746502121
22	3954	19	0.054864439407828
22	4543	20	0.037577236816288
22	5198	21	-0.0075958896148958
22	5975	22	-0.11525616044411
22	6703	23	0.0277686859807
22	7536	24	0.018142678570001
22	8418	25	-0.011085084402001
22	9321	26	0.073872585417703
22	10247	27	-0.040404997947627
22	11254	28	-0.015665492091793
22	12360	29	-0.050166805482004
22	13512	30	0.092853501169012
22	14793	31	-0.080654946423602
22	16305	32	-0.27908423852234
22	17890	33	-3.3188026039673
22	19646	34	-3.0607588449122
22	21273	35	-2.6639138147991
22	23064	36	0.27380115026151
22	24818	37	2.2626646912354
22	26662	38	1.8312329434247
22	28549	39	1.8129735422344
22	30499	40	1.9775976553769
22	32569	41	1.2086343254359
22	34610	42	-0.029727904323954
22	36657	43	0.069898521474098
22	38882	44	-0.06551566695096
22	41356	45	0.023690663317684
22	43711	46	0.010855919988826
22	46072	47	0.058784069500398
22	48575	48	-0.0038656439958142
22	51219	49	-0.027796071786433
22	53995	50	-0.013484198974911
22	56959	51	0.042258514256682
19	107	5	4.1837425248161
19	185	6	6.1261965204705
19	273	7	7.9842654910403
19	381	8	10.128425986962
19	524	9	12.218075431841
19	710	10	13.813766677906
19	942	11	13.872907236544
19	1147	12	13.778496056341
19	1402	13	13.859758491216
19	1661	14	13.801533117299
19	1932	15	13.882207241184
19	2486	16	13.802720147136
19	2900	17	13.785650022104
19	3356	18	13.791836196755
19	3954	19	13.846700636162
19	4543	20	13.884277872979
19	5198	21	13.876681983364
19	5975	22	13.76142582292
19	6703	23	13.7891945089
19	7536	24	13.80733718747
19	8418	25	13.796252103068
19	9321	26	13.870124688486
19	10247	27	13.829719690538
19	11254	28	13.814054198447
19	12360	29	13.763887392965
19	13512	30	13.856740894134
19	14793	31	13.77608594771
19	16305	32	13.497001709188
19	17890	33	10.17819910522
19	19646	34	7.1174402603083
19	21273	35	4.4535264455091
19	23064	36	4.7273275957707
19	24818	37	6.9899922870061
19	26662	38	8.8212252304307
19	28549	39	10.634198772665
19	30499	40	12.611796428042
19	32569	41	13.820430753478
19	34610	42	13.790702849154
19	36657	43	13.860601370628
19	38882	44	13.795085703677
19	41356	45	13.818776366995
19	43711	46	13.829632286984
19	46072	47	13.888416356484
19	48575	48	13.884550712488
19	51219	49	13.856754640702
19	53995	50	13.843270441727
19	56959	51	13.885528955983
11	53	4	611.63399887184
11	107	5	611.63399887184
11	185	6	608.44140993568
11	273	7	603.24065654773
11	381	8	596.11585985655
11	524	9	586.98487779614
11	710	10	575.69661619577
11	942	11	562.3987816814
11	1147	12	548.58521488621
11	1402	13	534.76483012689
11	1661	14	520.94438337148
11	1932	15	507.13113259258
11	2486	16	493.2982212697
11	2900	17	479.48624702987
11	3356	18	465.67750045821
11	3954	19	451.85606954553
11	4543	20	438.0180331146
11	5198	21	424.16721150104
11	5975	22	410.31758312272
11	6703	23	396.50776093453
11	7536	24	382.68953467472
11	8418	25	368.85741291295
11	9321	26	355.040794886
11	10247	27	341.20328537731
11	11254	28	327.3794676029
11	12360	29	313.5610849395
11	13512	30	299.73700499785
11	14793	31	285.90936821452
11	16305	32	272.10613938692
11	17890	33	258.31459610098
11	19646	34	246.66287048926
11	21273	35	238.21531569872
11	23064	36	232.5962605133
11	24818	37	228.62032894189
11	26662	38	224.2872921269
11	28549	39	223.4
11	30499	40	223.4
11	32569	41	223.4
11	34610	42	223.4
11	36657	43	223.4
11	38882	44	223.4
11	41356	45	223.4
11	43711	46	223.4
11	46072	47	223.4
11	48575	48	223.4
11	51219	49	223.4
11	53995	50	223.4
11	56959	51	223.4
10	53	4	226.6
10	107	5	226.6
10	185	6	226.6
10	273	7	226.6
10	381	8	226.6
10	524	9	226.6
10	710	10	226.6
10	942	11	226.6
10	1147	12	226.6
10	1402	13	226.6
10	1661	14	226.6
10	1932	15	226.6
10	2486	16	226.6
10	2900	17	226.6
10	3356	18	226.6
10	3954	19	226.6
10	4543	20	226.6
10	5198	21	226.6
10	5975	22	226.6
10	6703	23	226.6
10	7536	24	226.6
10	8418	25	226.6
10	9321	26	226.6
10	10247	27	226.6
10	11254	28	226.6
10	12360	29	226.6
10	13512	30	226.6
10	14793	31	226.6
10	16305	32	226.6
10	17890	33	226.6
10	19646	34	226.6
10	21273	35	226.6
10	23064	36	226.6
10	24818	37	226.08861842027
10	26662	38	222.21215354484
10	28549	39	214.38631476472
10	30499	40	204.57720000359
10	32569	41	192.8364370063
10	34610	42	179.37175995991
10	36657	43	165.55187508239
10	38882	44	151.70955093778
10	41356	45	137.88334652285
10	43711	46	124.03564389715
10	46072	47	110.20918906714
10	48575	48	96.391130164689
10	51219	49	82.568195376819
10	53995	50	68.749898341248
10	56959	51	54.90994824776
vector 248 TestScenario.uninfected[50].veinsmobility posx ETV
vector 249 TestScenario.uninfected[50].veinsmobility posy ETV
vector 250 TestScenario.uninfected[51].veinsmobility posx ETV
vector 251 TestScenario.uninfected[51].veinsmobility posy ETV
vector 252 TestScenario.uninfected[49].veinsmobility acceleration ETV
vector 253 TestScenario.uninfected[49].veinsmobility co2emission ETV
vector 254 TestScenario.uninfected[52].veinsmobility posx ETV
vector 255 TestScenario.uninfected[52].veinsmobility posy ETV
vector 256 TestScenario.uninfected[50].veinsmobility speed ETV
vector 257 TestScenario.uninfected[51].veinsmobility speed ETV
vector 258 TestScenario.uninfected[50].veinsmobility acceleration ETV
vector 259 TestScenario.uninfected[50].veinsmobility co2emission ETV
vector 260 TestScenario.uninfected[51].veinsmobility acceleration ETV
vector 261 TestScenario.uninfected[51].veinsmobility co2emission ETV
vector 262 TestScenario.uninfected[52].veinsmobility speed ETV
vector 263 TestScenario.uninfected[53].veinsmobility posx ETV
vector 264 TestScenario.uninfected[53].veinsmobility posy ETV
vector 265 TestScenario.uninfected[52].veinsmobility acceleration ETV
vector 266 TestScenario.uninfected[52].veinsmobility co2emission ETV
vector 267 TestScenario.uninfected[54].veinsmobility posx ETV
vector 268 TestScenario.uninfected[54].veinsmobility posy ETV
vector 269 TestScenario.uninfected[53].veinsmobility speed ETV
vector 270 TestScenario.uninfected[55].veinsmobility posx ETV
vector 271 TestScenario.uninfected[55].veinsmobility posy ETV
vector 272 TestScenario.uninfected[53].veinsmobility acceleration ETV
vector 273 TestScenario.uninfected[53].veinsmobility co2emission ETV
vector 274 TestScenario.uninfected[54].veinsmobility speed ETV
vector 275 TestScenario.uninfected[56].veinsmobility posx ETV
vector 276 TestScenario.uninfected[56].veinsmobility posy ETV
vector 277 TestScenario.uninfected[54].veinsmobility acceleration ETV
vector 278 TestScenario.uninfected[54].veinsmobility co2emission ETV
vector 279 TestScenario.uninfected[55].veinsmobility speed ETV
vector 280 TestScenario.uninfected[57].veinsmobility posx ETV
vector 281 TestScenario.uninfected[57].veinsmobility posy ETV
vector 282 TestScenario.uninfected[55].veinsmobility acceleration ETV
vector 283 TestScenario.uninfected[55].veinsmobility co2emission ETV
vector 284 TestScenario.uninfected[56].veinsmobility speed ETV
vector 285 TestScenario.uninfected[58].veinsmobility posx ETV
vector 286 TestScenario.uninfected[58].veinsmobility posy ETV
vector 287 TestScenario.uninfected[59].veinsmobility posx ETV
vector 288 TestScenario.uninfected[59].veinsmobility posy ETV
vector 289 TestScenario.uninfected[56].veinsmobility acceleration ETV
vector 290 TestScenario.uninfected[56].veinsmobility co2emission ETV
vector 291 TestScenario.uninfected[57].veinsmobility speed ETV
vector 292 TestScenario.uninfected[60].veinsmobility posx ETV
vector 293 TestScenario.uninfected[60].veinsmobility posy ETV
vector 294 TestScenario.uninfected[57].veinsmobility acceleration ETV
vector 295 TestScenario.uninfected[57].veinsmobility co2emission ETV
vector 296 TestScenario.uninfected[58].veinsmobility speed ETV
vector 297 TestScenario.uninfected[59].veinsmobility speed ETV
53	1147	12	4.3132457049137
53	1402	13	5.3595102880519
53	1661	14	6.3952191210152
53	1932	15	7.6240947182539
53	2486	16	8.3916367649199
53	2900	17	1.8265547334969
53	3356	18	2.1169420399481
53	3954	19	2.002797423453
53	4543	20	1.9643338897968
53	5198	21	1.9469878821088
53	5975	22	2.2373140120194
53	6703	23	1.9272826405773
53	7536	24	0.973
53	8418	25	0.973
53	9321	26	0.973
53	10247	27	0.973
53	11254	28	4.2584813692582
53	12360	29	5.0527185204151
53	13512	30	4.9605934597701
53	14793	31	6.6522163786975
53	16305	32	7.9215825725261
53	17890	33	5.1434670677163
53	19646	34	1.8087975259556
53	21273	35	2.2333350725774
53	23064	36	1.9604840401926
53	24818	37	1.8407080431192
53	26662	38	2.1817929023053
53	28549	39	2.0703336631772
53	30499	40	1.969458511368
53	32569	41	1.2707599960297
53	34610	42	0.973
53	36657	43	0.973
53	38882	44	0.973
53	41356	45	1.6897502133699
53	43711	46	4.1268432364972
53	46072	47	1.7700259926511
53	48575	48	5.8683154822294
53	51219	49	7.2890737631003
53	53995	50	8.2033017237156
53	56959	51	5.0870813461689
53	59873	52	2.2609961686969
53	63224	53	1.8925209581359
53	66710	54	2.10372423953
53	70099	55	1.7346837650638
53	73473	56	2.2095783262137
53	76997	57	2.176251477348
53	80687	58	1.7797374919645
53	84484	59	1.9876294186385
53	88351	60	2.1085455104628
53	92586	61	2.2707505887118
52	1147	12	1.9843496885593
52	1402	13	1.9739130757307
52	1661	14	1.9593414146011
52	1932	15	2.0010472978279
52	2486	16	1.9024136733644
52	2900	17	-0.058339483942836
52	3356	18	0.027917107429822
52	3954	19	-0.0060928162327034
52	4543	20	-0.017121121832171
52	5198	21	-0.021701262407005
52	5975	22	0.063330784293358
52	6703	23	-0.028607373670676
52	7536	24	-1.8237022195707
52	8418	25	-3.2708032359233
52	9321	26	-2.8172923834296
52	10247	27	-2.3677851712635
52	11254	28	2.0963443885594
52	12360	29	1.9328171070246
52	13512	30	1.5213419577119
52	14793	31	1.8512527756183
52	16305	32	1.9284209102229
52	17890	33	0.93675785956905
52	19646	34	-0.062195128153544
52	21273	35	0.063534186929465
52	23064	36	-0.01780839199666
52	24818	37	-0.052399966875091
52	26662	38	0.048796064904892
52	28549	39	0.014837537943386
52	30499	40	-0.015002059084363
52	32569	41	-0.22183359061198
52	34610	42	-3.355611395049
52	36657	43	-3.004378862792
52	38882	44	-2.7177182258974
52	41356	45	0.29202584997812
52	43711	46	1.7069860287124
52	46072	47	0.19140611034585
52	48575	48	2.0318378316355
52	51219	49	2.1179010292981
52	53995	50	2.0228409738978
52	56959	51	0.92310879954836
52	59873	52	0.070569987362251
52	63224	53	-0.038631445232314
52	66710	54	0.023976871771739
52	70099	55	-0.084530947033782
52	73473	56	0.056647314601577
52	76997	57	0.04512328738114
52	80687	58	-0.071708989718463
52	84484	59	-0.0089208059781232
52	88351	60	0.026607685156632
52	92586	61	0.072729882951826
49	942	11	4.0612817129509
49	1147	12	6.0456314015102
49	1402	13	8.0195444772409
49	1661	14	9.9788858918419
49	1932	15	11.97993318967
49	2486	16	13.882346863034
49	2900	17	13.824007379091
49	3356	18	13.851924486521
49	3954	19	13.845831670288
49	4543	20	13.828710548456
49	5198	21	13.807009286049
49	5975	22	13.870340070343
49	6703	23	13.841732696672
49	7536	24	12.018030477101
49	8418	25	8.747227241178
49	9321	26	5.9299348577484
49	10247	27	3.5621496864848
49	11254	28	5.6584940750443
49	12360	29	7.5913111820689
49	13512	30	9.1126531397807
49	14793	31	10.963905915399
49	16305	32	12.892326825622
49	17890	33	13.829084685191
49	19646	34	13.766889557038
49	21273	35	13.830423743967
49	23064	36	13.81261535197
49	24818	37	13.760215385095
49	26662	38	13.80901145
49	28549	39	13.823848987943
49	30499	40	13.808846928859
49	32569	41	13.587013338247
49	34610	42	10.231401943198
49	36657	43	7.2270230804061
49	38882	44	4.5093048545087
49	41356	45	4.8013307044868
49	43711	46	6.5083167331992
49	46072	47	6.699722843545
49	48575	48	8.7315606751805
49	51219	49	10.849461704479
49	53995	50	12.872302678376
49	56959	51	13.795411477925
49	59873	52	13.865981465287
49	63224	53	13.827350020055
49	66710	54	13.851326891826
49	70099	55	13.766795944793
49	73473	56	13.823443259394
49	76997	57	13.868566546775
49	80687	58	13.796857557057
49	84484	59	13.787936751079
49	88351	60	13.814544436235
49	92586	61	13.887274319187
41	710	10	438.35435812088
41	942	11	438.35435812088
41	1147	12	441.46806322743
41	1402	13	446.6671062355
41	1661	14	453.80900201854
41	1932	15	462.94051572673
41	2486	16	474.0461191045
41	2900	17	487.06497068098
41	3356	18	500.88594324588
41	3954	19	514.72954000147
41	4543	20	528.56217668347
41	5198	21	542.38909498321
41	5975	22	556.22711562584
41	6703	23	570.05718806012
41	7536	24	583.88550106174
41	8418	25	597.11998232359
41	9321	26	607.34023625598
41	10247	27	614.53415885835
41	11254	28	619.08729801749
41	12360	29	623.27899126564
41	13512	30	626.35568849956
41	14793	31	626.6
41	16305	32	626.6
41	17890	33	626.6
41	19646	34	626.6
41	21273	35	626.6
41	23064	36	626.6
41	24818	37	626.6
41	26662	38	626.6
41	28549	39	626.6
41	30499	40	626.6
41	32569	41	626.6
41	34610	42	626.6
41	36657	43	626.6
41	38882	44	626.6
41	41356	45	626.6
41	43711	46	626.6
41	46072	47	627.55184464713
41	48575	48	633.29341931995
41	51219	49	641.17369920839
41	53995	50	651.10043756349
41	56959	51	663.07908152347
41	59873	52	676.70038707486
41	63224	53	690.53708260873
41	66710	54	704.3777707076
41	70099	55	718.21928443974
41	73473	56	732.03097990521
41	76997	57	745.87434469928
41	80687	58	759.710801073
41	84484	59	773.53270328971
41	88351	60	787.32937637977
41	92586	61	801.17371212613
40	710	10	423.4
40	942	11	423.4
40	1147	12	423.4
40	1402	13	423.4
40	1661	14	423.4
40	1932	15	423.4
40	2486	16	423.4
40	2900	17	423.4
40	3356	18	423.4
40	3954	19	423.4
40	4543	20	423.4
40	5198	21	423.4
40	5975	22	423.4
40	6703	23	423.4
40	7536	24	423.4
40	8418	25	423.4
40	9321	26	423.4
40	10247	27	423.4
40	11254	28	423.58389971678
40	12360	29	424.92739475938
40	13512	30	430.4898194969
40	14793	31	438.89412902163
40	16305	32	449.06335787026
40	17890	33	461.12420511003
40	19646	34	474.78832680365
40	21273	35	488.6285789454
40	23064	36	502.45612033102
40	24818	37	516.26454240039
40	26662	38	530.06761862491
40	28549	39	543.87379981834
40	30499	40	557.69324983564
40	32569	41	571.53210476126
40	34610	42	585.33620000375
40	36657	43	597.08961955974
40	38882	44	605.62128534149
40	41356	45	611.34740946592
40	43711	46	615.45453663829
40	46072	47	621.25307441189
40	48575	48	623.4
40	51219	49	623.4
40	53995	50	623.4
40	56959	51	623.4
40	59873	52	623.4
40	63224	53	623.4
40	66710	54	623.4
40	70099	55	623.4
40	73473	56	623.4
40	76997	57	623.4
40	80687	58	623.4
40	84484	59	623.4
40	88351	60	623.4
40	92586	61	623.4
vector 298 TestScenario.uninfected[61].veinsmobility posx ETV
vector 299 TestScenario.uninfected[61].veinsmobility posy ETV
vector 300 TestScenario.uninfected[58].veinsmobility acceleration ETV
vector 301 TestScenario.uninfected[58].veinsmobility co2emission ETV
vector 302 TestScenario.uninfected[59].veinsmobility acceleration ETV
vector 303 TestScenario.uninfected[59].veinsmobility co2emission ETV
vector 304 TestScenario.uninfected[60].veinsmobility speed ETV
73	2486	16	3.9862190109624
73	2900	17	4.9983252347758
73	3356	18	6.3171895314156
73	3954	19	7.0326256339594
73	4543	20	8.4289382751256
73	5198	21	3.2627049331404
73	5975	22	1.9418511863936
73	6703	23	1.9072787060294
73	7536	24	2.3353492926068
73	8418	25	1.633405991127
73	9321	26	2.2914694782079
73	10247	27	2.0675546462162
73	11254	28	2.0997234044207
73	12360	29	1.9087238895254
73	13512	30	1.7419394851485
73	14793	31	2.2575902590471
73	16305	32	2.1987103114289
73	17890	33	1.8455387590928
73	19646	34	1.9116511937806
73	21273	35	2.0661711171583
73	23064	36	1.9762553859735
73	24818	37	2.2664192680205
73	26662	38	1.7006345320856
73	28549	39	2.2942451537396
73	30499	40	1.9840092974674
73	32569	41	1.8802697866484
73	34610	42	0.973
73	36657	43	0.973
73	38882	44	0.973
73	41356	45	1.9199198987805
73	43711	46	0.973
73	46072	47	1.9478694960534
73	48575	48	4.674508800131
73	51219	49	5.8472783236327
73	53995	50	6.9913638003616
73	56959	51	6.9898890518718
73	59873	52	6.9201785301855
73	63224	53	1.8381063360763
73	66710	54	2.1791565660042
73	70099	55	2.1721787979423
73	73473	56	1.7974060739077
73	76997	57	2.1340498419946
73	80687	58	1.9338866675924
73	84484	59	2.2221761390358
73	88351	60	1.8175550241843
73	92586	61	2.1481329312026
73	97143	62	2.0460901618082
72	2486	16	1.8861530219414
72	2900	17	1.9034504601057
72	3356	18	2.0141765621072
72	3954	19	1.8876921280567
72	4543	20	1.9838341676816
72	5198	21	0.37140646446113
72	5975	22	-0.023715842799284
72	6703	23	-0.033166815272999
72	7536	24	0.092209102183116
72	8418	25	-0.11506988748908
72	9321	26	0.080348232379183
72	10247	27	0.012851258176379
72	11254	28	0.021784840209875
72	12360	29	-0.034346770907286
72	13512	30	-0.08231783590978
72	14793	31	0.070601809606886
72	16305	32	0.05119660240598
72	17890	33	-0.052922565133777
72	19646	34	-0.032191811844241
72	21273	35	0.013827012372204
72	23064	36	-0.01280027442146
72	24818	37	0.071861558789386
72	26662	38	-0.095107916377019
72	28549	39	0.080703990333713
72	30499	40	-0.01181897688657
72	32569	41	-0.041760095334611
72	34610	42	-1.5397697734393
72	36657	43	-2.9404475425
72	38882	44	-1.1689407851894
72	41356	45	0.17642631387997
72	43711	46	-4.3940084835604
72	46072	47	0.56387927849578
72	48575	48	2.0425345714809
72	51219	49	2.0562678857078
72	53995	50	2.0476183628291
72	56959	51	1.7143335434259
72	59873	52	1.4691369424015
72	63224	53	-0.053724916472564
72	66710	54	0.047362294793128
72	70099	55	0.043797123522964
72	73473	56	-0.066607581495774
72	76997	57	0.033477094613481
72	80687	58	-0.025804791930131
72	84484	59	0.058758630743251
72	88351	60	-0.06070037640864
72	92586	61	0.037380960928276
72	97143	62	0.0066019972693159
69	1932	15	3.8004325452788
69	2486	16	5.6865855672202
69	2900	17	7.5900360273259
69	3356	18	9.6042125894331
69	3954	19	11.49190471749
69	4543	20	13.475738885171
69	5198	21	13.847145349632
69	5975	22	13.823429506833
69	6703	23	13.79026269156
69	7536	24	13.882471793743
69	8418	25	13.767401906254
69	9321	26	13.847750138633
69	10247	27	13.86060139681
69	11254	28	13.88238623702
69	12360	29	13.848039466112
69	13512	30	13.765721630203
69	14793	31	13.836323439809
69	16305	32	13.887520042215
69	17890	33	13.834597477082
69	19646	34	13.802405665237
69	21273	35	13.81623267761
69	23064	36	13.803432403188
69	24818	37	13.875293961978
69	26662	38	13.780186045601
69	28549	39	13.860890035934
69	30499	40	13.849071059048
69	32569	41	13.807310963713
69	34610	42	12.267541190274
69	36657	43	9.3270936477737
69	38882	44	8.1581528625844
69	41356	45	8.3345791764644
69	43711	46	3.940570692904
69	46072	47	4.5044499713997
69	48575	48	6.5469845428807
69	51219	49	8.6032524285885
69	53995	50	10.650870791418
69	56959	51	12.365204334843
69	59873	52	13.834341277245
69	63224	53	13.780616360772
69	66710	54	13.827978655566
69	70099	55	13.871775779088
69	73473	56	13.805168197593
69	76997	57	13.838645292206
69	80687	58	13.812840500276
69	84484	59	13.871599131019
69	88351	60	13.810898754611
69	92586	61	13.848279715539
69	97143	62	13.854881712808
61	1661	14	411.64691181547
61	1932	15	411.64691181547
61	2486	16	408.67835709193
61	2900	17	403.89903919423
61	3356	18	397.18910932311
61	3954	19	388.42880889462
61	4543	20	377.7516206551
61	5198	21	365.12703238269
61	5975	22	351.28976637755
61	6703	23	337.47455390651
61	7536	24	323.65636476375
61	8418	25	309.82604227187
61	9321	26	296.01861331262
61	10247	27	282.17419362011
61	11254	28	268.34030020849
61	12360	29	254.5114584132
61	13512	30	240.68386034753
61	14793	31	226.87481222545
61	16305	32	213.05827233228
61	17890	33	199.22379930474
61	19646	34	185.39161620027
61	21273	35	171.5688854074
61	23064	36	157.73378529951
61	24818	37	143.91973490304
61	26662	38	130.08440880522
61	28549	39	116.25617886219
61	30499	40	102.42745999562
61	32569	41	88.57661951631
61	34610	42	74.775104111109
61	36657	43	61.38021930063
61	38882	44	50.873305939273
61	41356	45	42.319904976781
61	43711	46	34.14683895437
61	46072	47	28.208904528214
61	48575	48	26.6
61	51219	49	26.6
61	53995	50	26.6
61	56959	51	26.6
61	59873	52	26.6
61	63224	53	26.6
61	66710	54	26.6
61	70099	55	26.6
61	73473	56	26.6
61	76997	57	26.6
61	80687	58	26.6
61	84484	59	26.6
61	88351	60	26.6
61	92586	61	26.6
61	97143	62	26.6
60	1661	14	26.6
60	1932	15	26.6
60	2486	16	26.6
60	2900	17	26.6
60	3356	18	26.6
60	3954	19	26.6
60	4543	20	26.6
60	5198	21	26.6
60	5975	22	26.6
60	6703	23	26.6
60	7536	24	26.6
60	8418	25	26.6
60	9321	26	26.6
60	10247	27	26.6
60	11254	28	26.6
60	12360	29	26.6
60	13512	30	26.6
60	14793	31	26.6
60	16305	32	26.6
60	17890	33	26.6
60	19646	34	26.6
60	21273	35	26.6
60	23064	36	26.6
60	24818	37	26.6
60	26662	38	26.6
60	28549	39	26.6
60	30499	40	26.6
60	32569	41	26.6
60	34610	42	26.6
60	36657	43	26.6
60	38882	44	26.6
60	41356	45	26.6
60	43711	46	26.6
60	46072	47	26.6
60	48575	48	29.580617974387
60	51219	49	35.257095748811
60	53995	50	42.935298491422
60	56959	51	52.649528743724
60	59873	52	64.239036434267
60	63224	53	77.597307252732
60	66710	54	91.408855168572
60	70099	55	105.24754532843
60	73473	56	119.08209716146
60	76997	57	132.91159270452
60	80687	58	146.74378455403
60	84484	59	160.58436343315
60	88351	60	174.40611816488
60	92586	61	188.23342774949
60	97143	62	202.04593230617
8	28	3	4.0322527122872
8	53	4	5.2975898300737
8	107	5	6.2393095735349
8	185	6	8.1168280262473
8	273	7	8.4055474696849
8	381	8	2.3038658754484
8	524	9	1.9713149755574
8	710	10	1.8163442131359
8	942	11	2.0431495384622
8	1147	12	2.1380878866565
8	1402	13	1.8140458596149
8	1661	14	2.2730687791507
8	1932	15	2.0682301560311
8	2486	16	1.9544832606483
8	2900	17	2.0365268825836
8	3356	18	1.7894518426085
8	3954	19	2.0525662521954
8	4543	20	2.2622431446776
8	5198	21	1.722826412014
8	5975	22	2.4120671038472
8	6703	23	1.8186792592635
8	7536	24	1.9342413048899
8	8418	25	2.0772325751314
8	9321	26	2.2400710176204
8	10247	27	1.6437339744064
8	11254	28	2.3666079486696
8	12360	29	1.783248008987
8	13512	30	1.9699713238691
8	14793	31	1.9963744594234
8	16305	32	2.0385863317251
8	17890	33	1.9847363127245
8	19646	34	2.2910437946701
8	21273	35	2.0797146195373
8	23064	36	2.0370078316322
8	24818	37	1.8082528189032
8	26662	38	2.0070633797391
8	28549	39	1.919860063504
8	30499	40	2.1422310330055
8	32569	41	1.8961167680848
8	34610	42	1.9903618513232
8	36657	43	2.1893955822312
8	38882	44	1.8607415087736
8	41356	45	0.973
8	43711	46	0.973
8	46072	47	0.973
8	48575	48	2.9267935002701
8	51219	49	4.8473908332871
8	53995	50	6.0294833257059
8	56959	51	6.9441273807086
8	59873	52	8.3095408246354
8	63224	53	4.3722707514584
8	66710	54	2.1828006773469
8	70099	55	2.0490987476434
8	73473	56	2.1532787073394
8	76997	57	2.0699320954096
8	80687	58	1.6736216566476
8	84484	59	2.202180754023
8	88351	60	2.045339242751
8	92586	61	2.0535428960424
8	97143	62	1.7932113867136
7	28	3	1.9318974897382
7	53	4	2.0363803824014
7	107	5	1.9676209085644
7	185	6	2.1980462150532
7	273	7	1.9237625535764
7	381	8	0.083470799195652
7	524	9	-0.015602680516896
7	710	10	-0.060467649514321
7	942	11	0.0075541240349413
7	1147	12	0.034957707063295
7	1402	13	-0.060687651869376
7	1661	14	0.074943820482586
7	1932	15	0.013140040771104
7	2486	16	-0.020331218841019
7	2900	17	0.0041436190437523
7	3356	18	-0.068192961576861
7	3954	19	0.010737981244455
7	4543	20	0.071314985805657
7	5198	21	-0.088119084923528
7	5975	22	0.11513733527157
7	6703	23	-0.060648100331891
7	7536	24	-0.025236193025485
7	8418	25	0.017223817983178
7	9321	26	0.063895740809384
7	10247	27	-0.11192242220277
7	11254	28	0.10210018288344
7	12360	29	-0.070663826344534
7	13512	30	-0.014095369526185
7	14793	31	-0.0059681585105142
7	16305	32	0.0065431934176008
7	17890	33	-0.009388820196035
7	19646	34	0.079981982572935
7	21273	35	0.016178220929577
7	23064	36	0.003301360034385
7	24818	37	-0.063480991583784
7	26662	38	-0.0036379914986888
7	28549	39	-0.029025837020018
7	30499	40	0.036729830130936
7	32569	41	-0.036191460043192
7	34610	42	-0.0075830339849929
7	36657	43	0.050661924649029
7	38882	44	-0.046745968211908
7	41356	45	-2.5574399481186
7	43711	46	-4.4742306211542
7	46072	47	-2.8887004553335
7	48575	48	1.2629859492951
7	51219	49	1.9690397724509
7	53995	50	2.0117680968461
7	56959	51	1.9452083734516
7	59873	52	2.0210778064001
7	63224	53	0.70985043721973
7	66710	54	0.048632998715622
7	70099	55	0.0082423621090122
7	73473	56	0.038228341341018
7	76997	57	0.012889041942545
7	80687	58	-0.10321231362643
7	84484	59	0.054099124851637
7	88351	60	0.0068413219484498
7	92586	61	0.009020881950855
7	97143	62	-0.067267725220882
4	11	2	3.722822103166
4	28	3	5.6547195929041
4	53	4	7.6910999753055
4	107	5	9.65872088387
4	185	6	11.856767098923
4	273	7	13.7805296525
4	381	8	13.864000451695
4	524	9	13.848397771178
4	710	10	13.787930121664
4	942	11	13.795484245699
4	1147	12	13.830441952762
4	1402	13	13.769754300893
4	1661	14	13.844698121375
4	1932	15	13.857838162147
4	2486	16	13.837506943305
4	2900	17	13.841650562349
4	3356	18	13.773457600772
4	3954	19	13.784195582017
4	4543	20	13.855510567822
4	5198	21	13.767391482899
4	5975	22	13.882528818171
4	6703	23	13.821880717839
4	7536	24	13.796644524813
4	8418	25	13.813868342796
4	9321	26	13.877764083606
4	10247	27	13.765841661403
4	11254	28	13.867941844286
4	12360	29	13.797278017942
4	13512	30	13.783182648416
4	14793	31	13.777214489905
4	16305	32	13.783757683323
4	17890	33	13.774368863127
4	19646	34	13.8543508457
4	21273	35	13.870529066629
4	23064	36	13.873830426664
4	24818	37	13.81034943508
4	26662	38	13.806711443581
4	28549	39	13.777685606561
4	30499	40	13.814415436692
4	32569	41	13.778223976649
4	34610	42	13.770640942664
4	36657	43	13.821302867313
4	38882	44	13.774556899101
4	41356	45	11.217116950982
4	43711	46	6.7428863298282
4	46072	47	3.8541858744947
4	48575	48	5.1171718237898
4	51219	49	7.0862115962408
4	53995	50	9.0979796930868
4	56959	51	11.043188066538
4	59873	52	13.064265872939
4	63224	53	13.774116310158
4	66710	54	13.822749308874
4	70099	55	13.830991670983
4	73473	56	13.869220012324
4	76997	57	13.882109054266
4	80687	58	13.77889674064
4	84484	59	13.832995865492
4	88351	60	13.83983718744
4	92586	61	13.848858069391
4	97143	62	13.78159034417
1	2	1	26.6
1	11	2	26.6
1	28	3	26.6
1	53	4	26.6
1	107	5	26.6
1	185	6	26.6
1	273	7	26.6
1	381	8	26.6
1	524	9	26.6
1	710	10	26.6
1	942	11	26.6
1	1147	12	26.6
1	1402	13	26.6
1	1661	14	26.6
1	1932	15	26.6
1	2486	16	26.6
1	2900	17	26.6
1	3356	18	26.6
1	3954	19	26.6
1	4543	20	26.6
1	5198	21	26.6
1	5975	22	26.6
1	6703	23	26.6
1	7536	24	26.6
1	8418	25	26.6
1	9321	26	26.6
1	10247	27	26.6
1	11254	28	26.6
1	12360	29	26.6
1	13512	30	26.6
1	14793	31	26.6
1	16305	32	26.6
1	17890	33	26.6
1	19646	34	26.6
1	21273	35	26.6
1	23064	36	26.6
1	24818	37	26.6
1	26662	38	26.6
1	28549	39	26.6
1	30499	40	26.6
1	32569	41	26.6
1	34610	42	26.6
1	36657	43	26.6
1	38882	44	26.6
1	41356	45	26.6
1	43711	46	26.6
1	46072	47	26.6
1	48575	48	27.205343164546
1	51219	49	31.538312676462
1	53995	50	37.715262034549
1	56959	51	45.890956107723
1	59873	52	56.089285095449
1	63224	53	68.298784322704
1	66710	54	82.015825701168
1	70099	55	95.852083044724
1	73473	56	109.66858208732
1	76997	57	123.50220828626
1	80687	58	137.33844196303
1	84484	59	151.16032275871
1	88351	60	165.00073297661
1	92586	61	178.82549549379
1	97143	62	192.63966594523
0	2	1	238.33130028169
0	11	2	238.33130028169
0	28	3	241.29043300185
0	53	4	246.13581405062
0	107	5	252.95160311503
0	185	6	261.74815797592
0	273	7	272.64644069597
0	381	8	285.48956514724
0	524	9	299.30126151605
0	710	10	313.14492636243
0	942	11	326.97829308077
0	1147	12	340.769842025
0	1402	13	354.60005657968
0	1661	14	368.42574301749
0	1932	15	382.26350665311
0	2486	16	396.09961021668
0	2900	17	409.91175920152
0	3356	18	423.75119785696
0	3954	19	437.57260656922
0	4543	20	451.41684149455
0	5198	21	465.24858742718
0	5975	22	479.0736492265
0	6703	23	492.90317593331
0	7536	24	506.72775546955
0	8418	25	520.54475070546
0	9321	26	534.35849624225
0	10247	27	548.19329699818
0	11254	28	562.00841562631
0	12360	29	575.8358515452
0	13512	30	589.65480642845
0	14793	31	603.46284124969
0	16305	32	617.26635678529
0	17890	33	631.08868560849
0	19646	34	644.91294757927
0	21273	35	658.73566558575
0	23064	36	672.58467888085
0	24818	37	686.42565494079
0	26662	38	700.26165282157
0	28549	39	714.09640932724
0	30499	40	727.93052559232
0	32569	41	741.76110254227
0	34610	42	755.58119478621
0	36657	43	769.39616682795
0	38882	44	783.22940430925
0	41356	45	797.02240509746
0	43711	46	809.94043961326
0	46072	47	818.69852616207
0	48575	48	823.12320589873
0	51219	49	823.4
0	53995	50	823.4
0	56959	51	823.4
0	59873	52	823.4
0	63224	53	823.4
0	66710	54	823.4
0	70099	55	823.4
0	73473	56	823.4
0	76997	57	823.4
0	80687	58	823.4
0	84484	59	823.4
0	88351	60	823.4
0	92586	61	823.4
0	97143	62	823.4
vector 305 TestScenario.uninfected[60].veinsmobility acceleration ETV
vector 306 TestScenario.uninfected[60].veinsmobility co2emission ETV
vector 307 TestScenario.uninfected[61].veinsmobility speed ETV
vector 308 TestScenario.uninfected[62].veinsmobility posx ETV
vector 309 TestScenario.uninfected[62].veinsmobility posy ETV
vector 310 TestScenario.uninfected[61].veinsmobility acceleration ETV
vector 311 TestScenario.uninfected[61].veinsmobility co2emission ETV
88	3954	19	4.049414549631
88	4543	20	5.4248356340167
88	5198	21	5.9475115666634
88	5975	22	7.9812376473008
88	6703	23	8.2358515529932
88	7536	24	2.1323276958019
88	8418	25	2.037696318897
88	9321	26	2.0366459426457
88	10247	27	1.8103772392687
88	11254	28	2.1446232052264
88	12360	29	2.0270871333378
88	13512	30	2.1251517084915
88	14793	31	1.998777855395
88	16305	32	1.7632417352597
88	17890	33	2.119898590752
88	19646	34	2.1657639686587
88	21273	35	1.9822401447969
88	23064	36	1.8965567239905
88	24818	37	1.991616180208
88	26662	38	2.3741431739949
88	28549	39	1.7069176066344
88	30499	40	1.9785060101052
88	32569	41	2.3656614898044
88	34610	42	1.8409621486006
88	36657	43	1.8862745581964
88	38882	44	1.9213693437278
88	41356	45	2.109156342976
88	43711	46	0.973
88	46072	47	0.973
88	48575	48	0.973
88	51219	49	0.973
88	53995	50	5.0517637638205
88	56959	51	4.8367885105314
88	59873	52	7.2463722791512
88	63224	53	8.1477076467369
88	66710	54	6.3352774769827
88	70099	55	1.9662435888455
88	73473	56	2.0339136707038
88	76997	57	2.0972957294749
88	80687	58	1.9739948147304
88	84484	59	1.8588411417054
88	88351	60	2.1023538765448
88	92586	61	1.9352841397637
88	97143	62	1.9826933901447
88	101891	63	1.9617890235177
88	106121	64	2.4346875322824
87	3954	19	1.8328641873272
87	4543	20	2.019374355576
87	5198	21	1.8130298973457
87	5975	22	2.1356933039566
87	6703	23	1.8698716939539
87	7536	24	0.03322496258188
87	8418	25	0.0046900736191304
87	9321	26	0.004244782787282
87	10247	27	-0.061994178283493
87	11254	28	0.037430568579584
87	12360	29	0.0020650875475265
87	13512	30	0.030519253492821
87	14793	31	-0.0071353064896549
87	16305	32	-0.075867235281038
87	17890	33	0.03064835867146
87	19646	34	0.043001670106314
87	21273	35	-0.011683034321759
87	23064	36	-0.036388822067529
87	24818	37	-0.0075604726537133
87	26662	38	0.10366262909491
87	28549	39	-0.093511433333624
87	30499	40	-0.011468510895503
87	32569	41	0.10126802765997
87	34610	42	-0.054130525493528
87	36657	43	-0.039449931494891
87	38882	44	-0.028094019647687
87	41356	45	0.027634765628815
87	43711	46	-3.3358843139955
87	46072	47	-3.0499819306613
87	48575	48	-2.6548777377915
87	51219	49	-0.33702527713092
87	53995	50	2.2415648450074
87	56959	51	1.6386442651504
87	59873	52	2.1876690092869
87	63224	53	2.0671554851974
87	66710	54	1.2931445131428
87	70099	55	-0.016367002676708
87	73473	56	0.0038294746633625
87	76997	57	0.022142232453916
87	80687	58	-0.014380359754432
87	84484	59	-0.047638880691958
87	88351	60	0.024852004777641
87	92586	61	-0.024637587380131
87	97143	62	-0.010070422044954
87	101891	63	-0.015902279254515
87	106121	64	0.12189579365076
84	3356	18	4.1265234313304
84	3954	19	5.9593876186576
84	4543	20	7.9787619742336
84	5198	21	9.7917918715793
84	5975	22	11.927485175536
84	6703	23	13.79735686949
84	7536	24	13.830581832072
84	8418	25	13.835271905691
84	9321	26	13.839516688478
84	10247	27	13.777522510195
84	11254	28	13.814953078774
84	12360	29	13.817018166322
84	13512	30	13.847537419815
84	14793	31	13.840402113325
84	16305	32	13.764534878044
84	17890	33	13.795183236715
84	19646	34	13.838184906822
84	21273	35	13.8265018725
84	23064	36	13.790113050432
84	24818	37	13.782552577779
84	26662	38	13.886215206874
84	28549	39	13.79270377354
84	30499	40	13.781235262644
84	32569	41	13.882503290304
84	34610	42	13.828372764811
84	36657	43	13.788922833316
84	38882	44	13.760828813668
84	41356	45	13.788463579297
84	43711	46	10.452579265302
84	46072	47	7.4025973346403
84	48575	48	4.7477195968488
84	51219	49	4.4106943197179
84	53995	50	6.6522591647252
84	56959	51	8.2909034298756
84	59873	52	10.478572439163
84	63224	53	12.54572792436
84	66710	54	13.838872437503
84	70099	55	13.822505434826
84	73473	56	13.826334909489
84	76997	57	13.848477141943
84	80687	58	13.834096782189
84	84484	59	13.786457901497
84	88351	60	13.811309906275
84	92586	61	13.786672318894
84	97143	62	13.776601896849
84	101891	63	13.760699617595
84	106121	64	13.882595411246
76	2900	17	23.4
76	3356	18	23.4
76	3954	19	23.4
76	4543	20	23.4
76	5198	21	23.4
76	5975	22	23.4
76	6703	23	23.4
76	7536	24	23.4
76	8418	25	23.4
76	9321	26	23.4
76	10247	27	23.4
76	11254	28	23.4
76	12360	29	23.4
76	13512	30	23.4
76	14793	31	23.4
76	16305	32	23.4
76	17890	33	23.4
76	19646	34	23.4
76	21273	35	23.4
76	23064	36	23.4
76	24818	37	23.4
76	26662	38	23.4
76	28549	39	23.4
76	30499	40	23.4
76	32569	41	23.4
76	34610	42	23.4
76	36657	43	23.4
76	38882	44	23.4
76	41356	45	23.4
76	43711	46	23.4
76	46072	47	23.4
76	48575	48	23.4
76	51219	49	23.4
76	53995	50	23.854362716606
76	56959	51	27.189249909451
76	59873	52	34.547490184533
76	63224	53	44.002052910602
76	66710	54	55.569949091493
76	70099	55	69.042547146288
76	73473	56	82.864629855006
76	76997	57	96.693490735548
76	80687	58	110.52684130266
76	84484	59	124.34506535903
76	88351	60	138.15393038846
76	92586	61	151.96795898166
76	97143	62	165.78826280264
76	101891	63	179.6142833221
76	106121	64	193.42243663515
75	2900	17	611.61862955957
75	3356	18	611.61862955957
75	3954	19	608.4254937753
75	4543	20	603.30776201075
75	5198	21	596.24256614393
75	5975	22	587.32066832446
75	6703	23	576.36273938005
75	7536	24	563.37995352453
75	8418	25	549.56039072935
75	9321	26	535.70641723947
75	10247	27	521.8828633911
75	11254	28	508.05190303861
75	12360	29	494.22032290871
75	13512	30	480.38631404932
75	14793	31	466.60202609683
75	16305	32	452.7806500216
75	17890	33	438.95676811144
75	19646	34	425.14451277999
75	21273	35	411.32358882921
75	23064	36	397.51289974276
75	24818	37	383.70561058998
75	26662	38	369.90174921012
75	28549	39	356.07128694112
75	30499	40	342.2417557653
75	32569	41	328.43350045144
75	34610	42	314.61902488055
75	36657	43	300.8050054352
75	38882	44	286.99564888225
75	41356	45	273.1767826403
75	43711	46	259.3545213984
75	46072	47	247.45943775792
75	48575	48	238.76369078338
75	51219	49	232.92230061071
75	53995	50	229.01946098376
75	56959	51	224.64645005433
75	59873	52	223.4
75	63224	53	223.4
75	66710	54	223.4
75	70099	55	223.4
75	73473	56	223.4
75	76997	57	223.4
75	80687	58	223.4
75	84484	59	223.4
75	88351	60	223.4
75	92586	61	223.4
75	97143	62	223.4
75	101891	63	223.4
75	106121	64	223.4
vector 312 TestScenario.uninfected[63].veinsmobility posx ETV
vector 313 TestScenario.uninfected[63].veinsmobility posy ETV
vector 314 TestScenario.uninfected[64].veinsmobility posx ETV
vector 315 TestScenario.uninfected[64].veinsmobility posy ETV
vector 316 TestScenario.uninfected[62].veinsmobility speed ETV
vector 317 TestScenario.uninfected[65].veinsmobility posx ETV
vector 318 TestScenario.uninfected[65].veinsmobility posy ETV
vector 319 TestScenario.uninfected[62].veinsmobility acceleration ETV
vector 320 TestScenario.uninfected[62].veinsmobility co2emission ETV
vector 321 TestScenario.uninfected[63].veinsmobility speed ETV
vector 322 TestScenario.uninfected[64].veinsmobility speed ETV
vector 323 TestScenario.uninfected[66].veinsmobility posx ETV
vector 324 TestScenario.uninfected[66].veinsmobility posy ETV
vector 325 TestScenario.uninfected[63].veinsmobility acceleration ETV
vector 326 TestScenario.uninfected[63].veinsmobility co2emission ETV
vector 327 TestScenario.uninfected[64].veinsmobility acceleration ETV
vector 328 TestScenario.uninfected[64].veinsmobility co2emission ETV
vector 329 TestScenario.uninfected[65].veinsmobility speed ETV
vector 330 TestScenario.uninfected[67].veinsmobility posx ETV
vector 331 TestScenario.uninfected[67].veinsmobility posy ETV
vector 332 TestScenario.uninfected[65].veinsmobility acceleration ETV
vector 333 TestScenario.uninfected[65].veinsmobility co2emission ETV
vector 334 TestScenario.uninfected[66].veinsmobility speed ETV
vector 335 TestScenario.uninfected[68].veinsmobility posx ETV
vector 336 TestScenario.uninfected[68].veinsmobility posy ETV
vector 337 TestScenario.uninfected[66].veinsmobility acceleration ETV
vector 338 TestScenario.uninfected[66].veinsmobility co2emission ETV
vector 339 TestScenario.uninfected[67].veinsmobility speed ETV
vector 340 TestScenario.uninfected[69].veinsmobility posx ETV
vector 341 TestScenario.uninfected[69].veinsmobility posy ETV
vector 342 TestScenario.uninfected[67].veinsmobility acceleration ETV
vector 343 TestScenario.uninfected[67].veinsmobility co2emission ETV
vector 344 TestScenario.uninfected[68].veinsmobility speed ETV
18	107	5	4.0931528521982
18	185	6	5.7190741242088
18	273	7	6.1749091097848
18	381	8	7.0927377317887
18	524	9	8.0164398552752
18	710	10	2.8535438728518
18	942	11	2.0289928328033
18	1147	12	1.8810522803744
18	1402	13	2.2640623022785
18	1661	14	1.7179053222839
18	1932	15	2.3318076288463
18	2486	16	1.8661754768186
18	2900	17	2.0542684590378
18	3356	18	0.973
18	3954	19	0.973
18	4543	20	1.4313728830644
18	5198	21	3.3143217858244
18	5975	22	6.6228711704383
18	6703	23	6.9572416738966
18	7536	24	7.7826164543816
18	8418	25	3.6835186455311
18	9321	26	1.9444984154237
18	10247	27	2.1105704348401
18	11254	28	2.1005857759288
18	12360	29	1.8199674801356
18	13512	30	2.0495512797582
18	14793	31	2.334155723993
18	16305	32	1.6937369673786
18	17890	33	0.973
18	19646	34	0.973
18	21273	35	0.973
18	23064	36	0.973
18	24818	37	5.0426132822721
18	26662	38	4.7739650183076
18	28549	39	5.8868310836803
18	30499	40	7.4792491805948
18	32569	41	7.9078317601198
18	34610	42	3.348831305946
18	36657	43	2.3387388435753
18	38882	44	1.6512376256989
18	41356	45	2.2272510882835
18	43711	46	1.8771647282608
18	46072	47	2.2951566864669
18	48575	48	1.956620841631
18	51219	49	2.1202506963497
18	53995	50	1.898486352169
18	56959	51	0.973
18	59873	52	0.973
18	63224	53	0.973
18	66710	54	0.973
18	70099	55	5.3226566395797
18	73473	56	1.315773521158
18	76997	57	4.517835054141
18	80687	58	6.3295585614167
18	84484	59	7.2541894622763
18	88351	60	8.6151469169583
18	92586	61	2.1776400090122
18	97143	62	1.7967773541545
18	101891	63	2.0767766929369
18	106121	64	2.2714094702915
18	110517	65	1.8991504158897
18	115038	66	2.0412268077435
18	119713	67	1.9839384254569
18	124507	68	2.0246129372228
18	129772	69	2.1823882742314
18	135271	70	1.6453792134984
17	107	5	1.8934586951672
17	185	6	2.1563206688361
17	273	7	1.88209418691
17	381	8	1.8559557857434
17	524	9	1.8352935877116
17	710	10	0.24849788005181
17	942	11	0.0014822860877022
17	1147	12	-0.041685313740745
17	1402	13	0.070846990777644
17	1661	14	-0.090231728134675
17	1932	15	0.091062660592142
17	2486	16	-0.046825560478029
17	2900	17	0.0092863154900265
17	3356	18	-2.8577496099914
17	3954	19	-4.4851412721979
17	4543	20	-0.010968077548314
17	5198	21	0.99907388916472
17	5975	22	2.1392287285789
17	6703	23	1.860421133386
17	7536	24	1.8129242773377
17	8418	25	0.50028137418209
17	9321	26	-0.021776061223354
17	10247	27	0.027332575065085
17	11254	28	0.023575769350863
17	12360	29	-0.059052122461143
17	13512	30	0.0097973550111057
17	14793	31	0.092043657747562
17	16305	32	-0.097183292920235
17	17890	33	-2.0143468411025
17	19646	34	-3.1955701857764
17	21273	35	-2.8414313173092
17	23064	36	-2.4110753935098
17	24818	37	2.5619180149538
17	26662	38	1.7659292928502
17	28549	39	1.8521675382229
17	30499	40	2.0395194928767
17	32569	41	1.8398335988424
17	34610	42	0.40129257763888
17	36657	43	0.093612055764533
17	38882	44	-0.10958317231387
17	41356	45	0.061922041687648
17	43711	46	-0.04201024932321
17	46072	47	0.080893560319673
17	48575	48	-0.019858843642288
17	51219	49	0.028269858350978
17	53995	50	-0.037041082768701
17	56959	51	-2.5486900607745
17	59873	52	-3.2610648655106
17	63224	53	-2.761672228116
17	66710	54	-1.2364149273218
17	70099	55	2.4729809278465
17	73473	56	-0.082887412984856
17	76997	57	1.5503398605948
17	80687	58	1.9467588125961
17	84484	59	1.9036482870765
17	88351	60	1.9833257153141
17	92586	61	0.046260478289332
17	97143	62	-0.06617812720593
17	101891	63	0.017571769643109
17	106121	64	0.073471043505705
17	110517	65	-0.036858289693482
17	115038	66	0.0055808176705625
17	119713	67	-0.011261148904451
17	124507	68	0.00091492798877901
17	129772	69	0.046672723535448
17	135271	70	-0.11142193198204
14	53	4	3.9817542820289
14	107	5	5.8752129771961
14	185	6	8.0315336460323
14	273	7	9.9136278329422
14	381	8	11.769583618686
14	524	9	13.604877206397
14	710	10	13.853375086449
14	942	11	13.854857372537
14	1147	12	13.813172058796
14	1402	13	13.884019049574
14	1661	14	13.793787321439
14	1932	15	13.884849982031
14	2486	16	13.838024421553
14	2900	17	13.847310737043
14	3356	18	10.989561127052
14	3954	19	6.5044198548538
14	4543	20	6.4934517773055
14	5198	21	7.4925256664702
14	5975	22	9.6317543950491
14	6703	23	11.492175528435
14	7536	24	13.305099805773
14	8418	25	13.805381179955
14	9321	26	13.783605118732
14	10247	27	13.810937693797
14	11254	28	13.834513463147
14	12360	29	13.775461340686
14	13512	30	13.785258695697
14	14793	31	13.877302353445
14	16305	32	13.780119060525
14	17890	33	11.765772219422
14	19646	34	8.5702020336458
14	21273	35	5.7287707163366
14	23064	36	3.3176953228269
14	24818	37	5.8796133377807
14	26662	38	7.6455426306309
14	28549	39	9.4977101688537
14	30499	40	11.53722966173
14	32569	41	13.377063260573
14	34610	42	13.778355838212
14	36657	43	13.871967893976
14	38882	44	13.762384721662
14	41356	45	13.82430676335
14	43711	46	13.782296514027
14	46072	47	13.863190074346
14	48575	48	13.843331230704
14	51219	49	13.871601089055
14	53995	50	13.834560006286
14	56959	51	11.285869945512
14	59873	52	8.0248050800014
14	63224	53	5.2631328518854
14	66710	54	4.0267179245636
14	70099	55	6.4996988524101
14	73473	56	6.4168114394252
14	76997	57	7.96715130002
14	80687	58	9.9139101126161
14	84484	59	11.817558399693
14	88351	60	13.800884115007
14	92586	61	13.847144593296
14	97143	62	13.78096646609
14	101891	63	13.798538235733
14	106121	64	13.872009279239
14	110517	65	13.835150989546
14	115038	66	13.840731807216
14	119713	67	13.829470658312
14	124507	68	13.8303855863
14	129772	69	13.877058309836
14	135271	70	13.765636377854
6	28	3	438.34775942317
6	53	4	438.34775942317
6	107	5	441.4088176292
6	185	6	446.45434897665
6	273	7	453.53617424597
6	381	8	462.57975371523
6	524	9	473.44364339012
6	710	10	486.20180991347
6	942	11	500.03542001702
6	1147	12	513.85840024455
6	1402	13	527.67166847357
6	1661	14	541.50101008848
6	1932	15	555.3072618635
6	2486	16	569.13437337156
6	2900	17	582.96147125182
6	3356	18	596.80648945781
6	3954	19	609.55458145657
6	4543	20	618.07172840806
6	5198	21	623.0716354357
6	5975	22	623.4
6	6703	23	623.4
6	7536	24	623.4
6	8418	25	623.4
6	9321	26	623.4
6	10247	27	623.4
6	11254	28	623.4
6	12360	29	623.4
6	13512	30	623.4
6	14793	31	623.4
6	16305	32	623.4
6	17890	33	623.4
6	19646	34	623.4
6	21273	35	623.4
6	23064	36	623.4
6	24818	37	623.4
6	26662	38	623.4
6	28549	39	623.4
6	30499	40	623.4
6	32569	41	623.4
6	34610	42	623.4
6	36657	43	623.4
6	38882	44	623.4
6	41356	45	623.4
6	43711	46	623.4
6	46072	47	623.4
6	48575	48	623.4
6	51219	49	623.4
6	53995	50	623.4
6	56959	51	623.4
6	59873	52	623.4
6	63224	53	623.4
6	66710	54	623.4
6	70099	55	623.4
6	73473	56	623.15779857285
6	76997	57	618.65712716747
6	80687	58	611.49205574988
6	84484	59	602.39468097838
6	88351	60	591.39591910946
6	92586	61	578.46019777069
6	97143	62	564.62058040702
6	101891	63	550.79662441592
6	106121	64	536.98093173431
6	110517	65	523.15342571662
6	115038	66	509.3218967538
6	119713	67	495.50707951218
6	124507	68	481.67044194463
6	129772	69	467.83893568203
6	135271	70	454.00658385249
5	28	3	423.4
5	53	4	423.4
5	107	5	423.4
5	185	6	423.4
5	273	7	423.4
5	381	8	423.4
5	524	9	423.4
5	710	10	423.4
5	942	11	423.4
5	1147	12	423.4
5	1402	13	423.4
5	1661	14	423.4
5	1932	15	423.4
5	2486	16	423.4
5	2900	17	423.4
5	3356	18	423.4
5	3954	19	423.4
5	4543	20	423.36118165599
5	5198	21	420.09855195011
5	5975	22	413.33455912997
5	6703	23	404.67935367042
5	7536	24	393.98646390629
5	8418	25	381.48668560657
5	9321	26	367.71750142574
5	10247	27	353.88259634633
5	11254	28	340.05420481286
5	12360	29	326.21917033195
5	13512	30	312.39378905771
5	14793	31	298.5758021284
5	16305	32	284.72145293506
5	17890	33	270.90821397392
5	19646	34	257.84018232933
5	21273	35	247.87806947393
5	23064	36	240.91306498241
5	24818	37	236.55362816675
5	26662	38	231.80974104243
5	28549	39	224.97304663859
5	30499	40	216.31487346703
5	32569	41	205.69822132344
5	34610	42	193.13132612466
5	36657	43	179.34365552822
5	38882	44	165.53175925922
5	41356	45	151.71806200721
5	43711	46	137.89887492162
5	46072	47	124.08761401182
5	48575	48	110.26053917587
5	51219	49	96.432180769553
5	53995	50	82.609748891496
5	56959	51	68.758294916844
5	59873	52	56.066274609963
5	63224	53	46.586623383817
5	66710	54	40.072965282269
5	70099	55	35.910569892487
5	73473	56	30.504590009945
5	76997	57	26.72244673821
5	80687	58	26.6
5	84484	59	26.6
5	88351	60	26.6
5	92586	61	26.6
5	97143	62	26.6
5	101891	63	26.6
5	106121	64	26.6
5	110517	65	26.6
5	115038	66	26.6
5	119713	67	26.6
5	124507	68	26.6
5	129772	69	26.6
5	135271	70	26.6
vector 345 TestScenario.uninfected[68].veinsmobility acceleration ETV
vector 346 TestScenario.uninfected[68].veinsmobility co2emission ETV
vector 347 TestScenario.uninfected[69].veinsmobility speed ETV
vector 348 TestScenario.uninfected[70].veinsmobility posx ETV
vector 349 TestScenario.uninfected[70].veinsmobility posy ETV
vector 350 TestScenario.uninfected[69].veinsmobility acceleration ETV
vector 351 TestScenario.uninfected[69].veinsmobility co2emission ETV
33	381	8	4.1707787383362
33	524	9	5.415033008706
33	710	10	6.2944863314161
33	942	11	6.8903826578306
33	1147	12	8.9859220848101
33	1402	13	2.3064333694372
33	1661	14	1.9009242713708
33	1932	15	2.2709315840464
33	2486	16	1.900028569126
33	2900	17	1.8043232809045
33	3356	18	2.3769997998863
33	3954	19	1.9969657051444
33	4543	20	0.973
33	5198	21	0.973
33	5975	22	0.973
33	6703	23	0.973
33	7536	24	0.973
33	8418	25	1.3127767670928
33	9321	26	3.5231031298029
33	10247	27	4.6805668634447
33	11254	28	5.8543064362483
33	12360	29	7.3807662477561
33	13512	30	8.0567434550109
33	14793	31	4.3654877567422
33	16305	32	1.9730544093843
33	17890	33	2.2999793541843
33	19646	34	1.7476313838416
33	21273	35	2.231986380941
33	23064	36	1.8276545966622
33	24818	37	2.1877831897007
33	26662	38	2.0015798742565
33	28549	39	2.1077159301832
33	30499	40	1.8391899429821
33	32569	41	2.2731135070531
33	34610	42	1.6920833081352
33	36657	43	2.1934591032796
33	38882	44	1.9481141468883
33	41356	45	2.147111400357
33	43711	46	1.8098929202251
33	46072	47	2.0458778959508
33	48575	48	2.128581238446
33	51219	49	1.8711590495242
33	53995	50	2.2692681427383
33	56959	51	2.0699213547033
33	59873	52	1.7013537481525
33	63224	53	1.7266857277306
33	66710	54	0.973
33	70099	55	0.973
33	73473	56	0.973
33	76997	57	0.973
33	80687	58	5.3235167557633
33	84484	59	4.82872342362
33	88351	60	6.8871587803408
33	92586	61	7.4348930242386
33	97143	62	7.0807747377096
33	101891	63	2.090595764824
33	106121	64	1.8830937394372
33	110517	65	2.0984240907735
33	115038	66	2.217857328228
33	119713	67	1.7471285930328
33	124507	68	2.2602248460765
33	129772	69	1.7810625512939
33	135271	70	1.9126866697574
33	141004	71	2.1026758926925
33	146305	72	2.1120229091676
32	381	8	1.9499414177705
32	524	9	2.0353051653411
32	710	10	1.946137789574
32	942	11	1.8052280764165
32	1147	12	2.1023168102838
32	1402	13	0.084943687045429
32	1661	14	-0.035602457672358
32	1932	15	0.072969764864537
32	2486	16	-0.036873145825229
32	2900	17	-0.063913967977278
32	3356	18	0.10453179631149
32	3954	19	-0.0087697554216728
32	4543	20	-2.9331489734384
32	5198	21	-3.1845301454363
32	5975	22	-2.6801963721006
32	6703	23	-0.82817415861049
32	7536	24	-0.7280708594404
32	8418	25	0.031696646185592
32	9321	26	1.69618947607
32	10247	27	1.8630741938297
32	11254	28	1.9421823483706
32	12360	29	2.0872504153289
32	13512	30	1.9377802551538
32	14793	31	0.70669098975604
32	16305	32	-0.012922213261481
32	17890	33	0.082547242527362
32	19646	34	-0.080867191154976
32	21273	35	0.062817627012265
32	23064	36	-0.056919671336656
32	24818	37	0.049806066688618
32	26662	38	-0.0058750307350426
32	28549	39	0.025166058868635
32	30499	40	-0.053850576488767
32	32569	41	0.073992742078845
32	34610	42	-0.097541807440576
32	36657	43	0.051726413555444
32	38882	44	-0.02129234579159
32	41356	45	0.037287365149242
32	43711	46	-0.062195263209288
32	46072	47	0.0085987258469693
32	48575	48	0.032424812209792
32	51219	49	-0.043674492787103
32	53995	50	0.073593997654969
32	56959	51	0.013451557618101
32	59873	52	-0.094638300891965
32	63224	53	-0.084956808761097
32	66710	54	-3.4368808660463
32	70099	55	-3.0752297123827
32	73473	56	-2.6390983265946
32	76997	57	-0.16511013626269
32	80687	58	2.3751326795574
32	84484	59	1.618403969239
32	88351	60	2.0586739377631
32	92586	61	1.8761680842494
32	97143	62	1.5198283719225
32	101891	63	0.020505009158514
32	106121	64	-0.040607932580169
32	110517	65	0.02340393576771
32	115038	66	0.057282775784843
32	119713	67	-0.081481556885411
32	124507	68	0.070345833904575
32	129772	69	-0.071252098348923
32	135271	70	-0.03079426315613
32	141004	71	0.02565436286619
32	146305	72	0.027573479702696
29	273	7	3.9208195363214
29	381	8	5.8707609540919
29	524	9	7.906066119433
29	710	10	9.852203909007
29	942	11	11.657431985423
29	1147	12	13.759748795707
29	1402	13	13.844692482753
29	1661	14	13.80909002508
29	1932	15	13.882059789945
29	2486	16	13.84518664412
29	2900	17	13.781272676142
29	3356	18	13.885804472454
29	3954	19	13.877034717032
29	4543	20	10.943885743594
29	5198	21	7.7593555981576
29	5975	22	5.079159226057
29	6703	23	4.2509850674465
29	7536	24	3.5229142080061
29	8418	25	3.5546108541917
29	9321	26	5.2508003302617
29	10247	27	7.1138745240914
29	11254	28	9.0560568724619
29	12360	29	11.143307287791
29	13512	30	13.081087542945
29	14793	31	13.787778532701
29	16305	32	13.774856319439
29	17890	33	13.857403561966
29	19646	34	13.776536370812
29	21273	35	13.839353997824
29	23064	36	13.782434326487
29	24818	37	13.832240393176
29	26662	38	13.826365362441
29	28549	39	13.851531421309
29	30499	40	13.797680844821
29	32569	41	13.871673586899
29	34610	42	13.774131779459
29	36657	43	13.825858193014
29	38882	44	13.804565847223
29	41356	45	13.841853212372
29	43711	46	13.779657949163
29	46072	47	13.78825667501
29	48575	48	13.820681487219
29	51219	49	13.777006994432
29	53995	50	13.850600992087
29	56959	51	13.864052549705
29	59873	52	13.769414248813
29	63224	53	13.684457440052
29	66710	54	10.247576574006
29	70099	55	7.1723468616233
29	73473	56	4.5332485350287
29	76997	57	4.368138398766
29	80687	58	6.7432710783234
29	84484	59	8.3616750475625
29	88351	60	10.420348985326
29	92586	61	12.296517069575
29	97143	62	13.816345441497
29	101891	63	13.836850450656
29	106121	64	13.796242518076
29	110517	65	13.819646453843
29	115038	66	13.876929229628
29	119713	67	13.795447672743
29	124507	68	13.865793506647
29	129772	69	13.794541408299
29	135271	70	13.763747145142
29	141004	71	13.789401508009
29	146305	72	13.816974987711
21	185	6	211.64598335749
21	273	7	211.64598335749
21	381	8	208.61652980736
21	524	9	203.64374644641
21	710	10	196.69506974543
21	942	11	187.72268683345
21	1147	12	176.94127106208
21	1402	13	164.15352929862
21	1661	14	150.33264270355
21	1932	15	136.49465471823
21	2486	16	122.65329277695
21	2900	17	108.83304578485
21	3356	18	94.999810168844
21	3954	19	81.168550114779
21	4543	20	67.342845965671
21	5198	21	54.945920105132
21	5975	22	45.792171215368
21	6703	23	39.54417795383
21	7536	24	35.472885543852
21	8418	25	31.356110592024
21	9321	26	32.141734034463
21	10247	27	36.51847052971
21	11254	28	42.799310922299
21	12360	29	50.92646401278
21	13512	30	61.163259458332
21	14793	31	73.334606258128
21	16305	32	87.046492512512
21	17890	33	100.87995284866
21	19646	34	114.70787562228
21	21273	35	128.52031306078
21	23064	36	142.33888216698
21	24818	37	156.14395774907
21	26662	38	169.95415742486
21	28549	39	183.80246455677
21	30499	40	197.62542127831
21	32569	41	211.45736241659
21	34610	42	225.29208258635
21	36657	43	239.13714711578
21	38882	44	252.95410839156
21	41356	45	266.77977357109
21	43711	46	280.57920140732
21	46072	47	294.4028493645
21	48575	48	308.20874081346
21	51219	49	322.01718301943
21	53995	50	335.862359253
21	56959	51	349.69796904417
21	59873	52	363.54159823677
21	63224	53	377.36418575845
21	66710	54	391.18319808567
21	70099	55	402.93161923157
21	73473	56	411.49491951056
21	76997	57	417.2451883203
21	80687	58	421.10741434192
21	84484	59	425.42041023638
21	88351	60	426.6
21	92586	61	426.6
21	97143	62	426.6
21	101891	63	426.6
21	106121	64	426.6
21	110517	65	426.6
21	115038	66	426.6
21	119713	67	426.6
21	124507	68	426.6
21	129772	69	426.6
21	135271	70	426.6
21	141004	71	426.6
21	146305	72	426.6
20	185	6	626.6
20	273	7	626.6
20	381	8	626.6
20	524	9	626.6
20	710	10	626.6
20	942	11	626.6
20	1147	12	626.6
20	1402	13	626.6
20	1661	14	626.6
20	1932	15	626.6
20	2486	16	626.6
20	2900	17	626.6
20	3356	18	626.6
20	3954	19	626.6
20	4543	20	626.6
20	5198	21	626.6
20	5975	22	626.6
20	6703	23	626.6
20	7536	24	626.6
20	8418	25	626.03740706135
20	9321	26	623.43884397702
20	10247	27	623.4
20	11254	28	623.4
20	12360	29	623.4
20	13512	30	623.4
20	14793	31	623.4
20	16305	32	623.4
20	17890	33	623.4
20	19646	34	623.4
20	21273	35	623.4
20	23064	36	623.4
20	24818	37	623.4
20	26662	38	623.4
20	28549	39	623.4
20	30499	40	623.4
20	32569	41	623.4
20	34610	42	623.4
20	36657	43	623.4
20	38882	44	623.4
20	41356	45	623.4
20	43711	46	623.4
20	46072	47	623.4
20	48575	48	623.4
20	51219	49	623.4
20	53995	50	623.4
20	56959	51	623.4
20	59873	52	623.4
20	63224	53	623.4
20	66710	54	623.4
20	70099	55	623.4
20	73473	56	623.4
20	76997	57	623.4
20	80687	58	623.87248776313
20	84484	59	627.3006837273
20	88351	60	634.79170914803
20	92586	61	644.27863242855
20	97143	62	655.70655098987
20	101891	63	669.00909395238
20	106121	64	682.83025868809
20	110517	65	696.65555789299
20	115038	66	710.49884868207
20	119713	67	724.33156259382
20	124507	68	738.14412706933
20	129772	69	751.97358276868
20	135271	70	765.79786261954
20	141004	71	779.62811962376
20	146305	72	793.44996904326
vector 352 TestScenario.uninfected[71].veinsmobility posx ETV
vector 353 TestScenario.uninfected[71].veinsmobility posy ETV
vector 354 TestScenario.uninfected[70].veinsmobility speed ETV
128	10247	27	4.254733826351
128	11254	28	5.388861749628
128	12360	29	6.7415085563893
128	13512	30	7.7663843089997
128	14793	31	7.7728054209526
128	16305	32	1.932222381559
128	17890	33	1.9938525567662
128	19646	34	2.1478976470827
128	21273	35	2.0708529588347
128	23064	36	2.167712903765
128	24818	37	1.7844130733333
128	26662	38	2.1955766527434
128	28549	39	0.973
128	30499	40	0.973
128	32569	41	0.973
128	34610	42	0.973
128	36657	43	1.4147520455269
128	38882	44	1.7519336610075
128	41356	45	4.1063520463109
128	43711	46	5.1326241149874
128	46072	47	7.0958929345084
128	48575	48	6.8129946340034
128	51219	49	8.6453453187798
128	53995	50	2.0048068144446
128	56959	51	1.9327247477666
128	59873	52	2.1121472707879
128	63224	53	2.0458339147431
128	66710	54	1.9455850815139
128	70099	55	1.9884537257594
128	73473	56	2.2112914341686
128	76997	57	2.0822317153013
128	80687	58	2.0964444131653
128	84484	59	1.9539453128048
128	88351	60	1.7008135943286
128	92586	61	2.1365298009482
128	97143	62	1.9276347482865
128	101891	63	2.0604674077882
128	106121	64	2.0676610677307
128	110517	65	2.215385564903
128	115038	66	1.7978737136441
128	119713	67	1.9205737010602
128	124507	68	2.2228160783751
128	129772	69	1.7843855922562
128	135271	70	2.2696435395151
128	141004	71	2.1866400196383
128	146305	72	1.9080254418793
128	151950	73	2.0969913266347
127	10247	27	1.9895783965662
127	11254	28	2.0130176633643
127	12360	29	2.0916550734243
127	13512	30	2.0340220999438
127	14793	31	1.7313462441091
127	16305	32	-0.025016494288575
127	17890	33	-0.0062549489573573
127	19646	34	0.038900056788698
127	21273	35	0.015254339671227
127	23064	36	0.042906658845023
127	24818	37	-0.070088370742742
127	26662	38	0.051870634867809
127	28549	39	-2.6256700529
127	30499	40	-3.1359433062577
127	32569	41	-2.7179475733916
127	34610	42	-1.8518599475542
127	36657	43	0.14117424678196
127	38882	44	0.44402249476174
127	41356	45	1.8706394556654
127	43711	46	1.8987868710933
127	46072	47	2.2232572488766
127	48575	48	1.7460300045833
127	51219	49	1.9888011169853
127	53995	50	-0.0046227801754029
127	56959	51	-0.025541961528361
127	59873	52	0.027547853526194
127	63224	53	0.0074070547777225
127	66710	54	-0.022044391953386
127	70099	55	-0.0088943285751153
127	73473	56	0.056191553408279
127	76997	57	0.016993024880067
127	80687	58	0.020588797596282
127	84484	59	-0.021366905914618
127	88351	60	-0.094883214312141
127	92586	61	0.035224082693459
127	97143	62	-0.026788476216607
127	101891	63	0.01280465223128
127	106121	64	0.014512258304748
127	110517	65	0.056934272097424
127	115038	66	-0.066316552925855
127	119713	67	-0.028612453273963
127	124507	68	0.060357339361218
127	129772	69	-0.069419204888401
127	135271	70	0.074233695508447
127	141004	71	0.04772391096456
127	146305	72	-0.03458236118313
127	151950	73	0.02135272851214
124	9321	26	3.9330552797296
124	10247	27	5.9226336762958
124	11254	28	7.9356513396601
124	12360	29	10.027306413084
124	13512	30	12.061328513028
124	14793	31	13.792674757137
124	16305	32	13.767658262849
124	17890	33	13.761403313891
124	19646	34	13.80030337068
124	21273	35	13.815557710351
124	23064	36	13.858464369196
124	24818	37	13.788375998454
124	26662	38	13.840246633322
124	28549	39	11.214576580422
124	30499	40	8.0786332741638
124	32569	41	5.3606857007723
124	34610	42	3.508825753218
124	36657	43	3.65
124	38882	44	4.0940224947617
124	41356	45	5.9646619504271
124	43711	46	7.8634488215204
124	46072	47	10.086706070397
124	48575	48	11.83273607498
124	51219	49	13.821537191966
124	53995	50	13.81691441179
124	56959	51	13.791372450262
124	59873	52	13.818920303788
[...]
474	1444612	207	26.6
474	1455006	208	26.6
474	1465746	209	26.6
474	1476344	210	26.6
474	1487142	211	26.6
474	1497567	212	26.6
474	1508113	213	26.6
474	1520027	214	26.6
474	1531747	215	26.6
474	1542536	216	26.6
474	1557101	217	26.6
474	1567023	218	26.6
474	1577529	219	27.923075176584
474	1587867	220	32.684922397856
474	1598091	221	39.32888217846
474	1610386	222	47.911308456826
474	1620798	223	58.421858313758
474	1631717	224	70.940040752455
474	1644834	225	84.722906941966
474	1655784	226	98.564833938481
474	1666188	227	112.37092614882
474	1676927	228	126.19213944557
474	1690458	229	140.00387914519
474	1701137	230	153.81079288161
474	1713249	231	167.62722024452
474	1725331	232	181.11478268228
474	1738685	233	192.58041421244
474	1750147	234	202.10371261944
473	310768	97	238.37252615764
473	318404	98	238.37252615764
473	325898	99	241.4649813422
473	333855	100	246.37921413385
473	342150	101	253.29932954034
473	350446	102	262.16203983644
473	358967	103	272.93482332137
473	367443	104	285.58580779446
473	376222	105	299.38437401165
473	384531	106	313.21405956198
473	393231	107	327.03549833238
473	402730	108	340.84487551959
473	411638	109	354.67553649793
473	420257	110	368.50432005498
473	429479	111	382.31744051106
473	438680	112	395.7745655714
473	448141	113	406.36210411578
473	457440	114	413.87252174289
473	466620	115	418.68620066878
473	475779	116	421.3903901805
473	485094	117	422.5643890571
473	495132	118	423.05619847818
473	504984	119	423.3133943632
473	517036	120	423.31339437618
473	526868	121	423.31339437618
473	538673	122	423.42144330589
473	548618	123	424.5888507209
473	559035	124	426.1472157332
473	569388	125	426.6
473	580225	126	426.6
473	591228	127	426.6
473	602555	128	426.6
473	615784	129	426.6
473	626024	130	426.6
473	636203	131	426.6
473	647026	132	426.6
473	657876	133	426.6
473	668656	134	426.6
473	679371	135	426.6
473	691882	136	426.6
473	702667	137	426.6
473	713051	138	426.6
473	723396	139	426.6
473	733614	140	426.6
473	743813	141	426.6
473	753515	142	426.6
473	762658	143	426.6
473	772412	144	426.6
473	782088	145	426.6
473	791960	146	426.6
473	805719	147	426.6
473	815768	148	426.6
473	825824	149	426.6
473	835646	150	426.6
473	848109	151	426.6
473	857515	152	426.6
473	867885	153	426.6
473	877996	154	426.6
473	888103	155	426.6
473	897838	156	426.6
473	907261	157	426.6
473	916649	158	426.6
473	926047	159	426.6
473	935371	160	426.6
473	944982	161	426.6
473	954979	162	426.6
473	964637	163	426.6
473	974094	164	426.6
473	983732	165	426.6
473	993464	166	426.6
473	1002682	167	426.6
473	1012054	168	426.6
473	1021589	169	426.6
473	1031444	170	426.6
473	1041191	171	426.6
473	1050723	172	426.6
473	1059931	173	426.6
473	1069077	174	426.6
473	1079717	175	426.6
473	1089828	176	426.6
473	1099966	177	426.6
473	1110749	178	426.6
473	1121372	179	426.6
473	1132139	180	426.6
473	1142903	181	426.6
473	1154222	182	426.6
473	1165953	183	426.6
473	1177856	184	426.6
473	1189237	185	426.6
473	1201428	186	426.6
473	1213309	187	427.17134847992
473	1226412	188	431.26937191096
473	1237945	189	438.35540243054
473	1249559	190	447.34878383345
473	1261062	191	458.42254606565
473	1272438	192	471.43980228651
473	1284324	193	485.2697911557
473	1295651	194	499.08324629733
473	1306653	195	512.90350219273
473	1317983	196	526.73472222493
473	1329232	197	540.55722005946
473	1340611	198	554.39003222635
473	1352280	199	568.21585944055
473	1364473	200	582.02072317193
473	1376516	201	595.86410471771
473	1388192	202	609.67251504421
473	1400176	203	623.49605042609
473	1411885	204	637.32354708535
473	1423106	205	651.16915580731
473	1433956	206	664.98002238473
473	1444612	207	678.83420860294
473	1455006	208	692.64459463465
473	1465746	209	706.47379620934
473	1476344	210	720.27926718668
473	1487142	211	734.11220749186
473	1497567	212	747.93336877116
473	1508113	213	761.74644633175
473	1520027	214	775.57431360734
473	1531747	215	789.10880479823
473	1542536	216	801.03120646594
473	1557101	217	812.0341710279
473	1567023	218	819.9023535782
473	1577529	219	823.36043931094
473	1587867	220	823.4
473	1598091	221	823.4
473	1610386	222	823.4
473	1620798	223	823.4
473	1631717	224	823.4
473	1644834	225	823.4
473	1655784	226	823.4
473	1666188	227	823.4
473	1676927	228	823.4
473	1690458	229	823.4
473	1701137	230	823.4
473	1713249	231	823.4
473	1725331	232	823.4
473	1738685	233	823.4
473	1750147	234	823.4
vector 1163 TestScenario.uninfected[233].veinsmobility posx ETV
vector 1164 TestScenario.uninfected[233].veinsmobility posy ETV
vector 1165 TestScenario.uninfected[234].veinsmobility posx ETV
vector 1166 TestScenario.uninfected[234].veinsmobility posy ETV
vector 1167 TestScenario.uninfected[232].veinsmobility acceleration ETV
vector 1168 TestScenario.uninfected[232].veinsmobility co2emission ETV
vector 1169 TestScenario.uninfected[233].veinsmobility speed ETV
vector 1170 TestScenario.uninfected[234].veinsmobility speed ETV
vector 1171 TestScenario.uninfected[235].veinsmobility posx ETV
vector 1172 TestScenario.uninfected[235].veinsmobility posy ETV
vector 1173 TestScenario.uninfected[233].veinsmobility acceleration ETV
vector 1174 TestScenario.uninfected[233].veinsmobility co2emission ETV
vector 1175 TestScenario.uninfected[234].veinsmobility acceleration ETV
vector 1176 TestScenario.uninfected[234].veinsmobility co2emission ETV
vector 1177 TestScenario.uninfected[235].veinsmobility speed ETV
vector 1178 TestScenario.uninfected[236].veinsmobility posx ETV
vector 1179 TestScenario.uninfected[236].veinsmobility posy ETV
vector 1180 TestScenario.uninfected[235].veinsmobility acceleration ETV
vector 1181 TestScenario.uninfected[235].veinsmobility co2emission ETV
711	782088	145	4.1139545496296
711	791960	146	5.3247908018258
711	805719	147	5.8544505771479
711	815768	148	7.938960851798
711	825824	149	8.5605460605962
711	835646	150	2.0787197655359
711	848109	151	2.0186703907619
711	857515	152	2.0568250692404
711	867885	153	2.1731025967436
711	877996	154	1.8294979564159
711	888103	155	2.0397263254849
711	897838	156	2.2089631522894
711	907261	157	1.6819160781615
711	916649	158	2.1169350421194
711	926047	159	1.9669003538499
711	935371	160	2.2406602183322
711	944982	161	1.9082884857049
711	954979	162	1.9755374551263
711	964637	163	2.0717255345945
711	974094	164	2.1187692545821
711	983732	165	2.1034899593221
711	993464	166	2.0097056161611
711	1002682	167	1.86851580129
711	1012054	168	2.1518053454967
711	1021589	169	2.1045907418654
711	1031444	170	1.8515371480644
711	1041191	171	1.9697288616672
711	1050723	172	0.973
711	1059931	173	0.973
711	1069077	174	0.973
711	1079717	175	0.973
711	1089828	176	5.3214901466991
711	1099966	177	5.5548511271464
711	1110749	178	6.0243469033506
711	1121372	179	7.5670815228311
711	1132139	180	7.2828391169561
711	1142903	181	1.833473133007
711	1154222	182	1.8396263957052
711	1165953	183	2.1582273312483
711	1177856	184	2.2461891503168
711	1189237	185	1.7522961804264
711	1201428	186	2.2073986909674
711	1213309	187	1.8280207344008
711	1226412	188	1.9028435844179
711	1237945	189	2.2879016362016
711	1249559	190	2.1194927558014
711	1261062	191	1.9402518366261
711	1272438	192	1.840469424001
711	1284324	193	2.2613672823953
711	1295651	194	1.6846755925616
711	1306653	195	2.1178469865714
711	1317983	196	2.0074417161107
711	1329232	197	2.0558204658507
711	1340611	198	2.0692475075589
711	1352280	199	1.8650556270628
711	1364473	200	2.3851881063912
711	1376516	201	1.7180208816096
711	1388192	202	1.988737078074
711	1400176	203	1.9415568903765
711	1411885	204	2.2476709477948
711	1423106	205	0.973
711	1433956	206	0.973
711	1444612	207	1.5776101851815
711	1455006	208	4.5230355426455
711	1465746	209	6.2498199567457
711	1476344	210	7.312179908616
711	1487142	211	8.441298899502
711	1497567	212	2.1384344365953
711	1508113	213	2.1240338030974
711	1520027	214	1.7089617544832
711	1531747	215	2.3576248227179
711	1542536	216	1.7995933164001
711	1557101	217	2.2451669541817
711	1567023	218	1.7251804430446
711	1577529	219	2.2902136715394
711	1587867	220	0.973
711	1598091	221	0.973
711	1610386	222	0.973
711	1620798	223	0.973
711	1631717	224	4.669997056098
711	1644834	225	1.5139535964694
711	1655784	226	4.9660011336116
711	1666188	227	6.0529211788605
711	1676927	228	7.7411450401876
711	1690458	229	8.1109211100263
711	1701137	230	1.9016604864099
711	1713249	231	2.2696972733911
711	1725331	232	1.8007697871854
711	1738685	233	1.9454373603041
711	1750147	234	1.9560996949839
711	1760792	235	2.1911802298044
711	1772120	236	2.1014059456385
711	1782892	237	1.8639049505884
711	1793858	238	2.286512283457
711	1804887	239	1.8662954922496
710	782088	145	1.899991030884
710	791960	146	1.992509516112
710	805719	147	1.7962601964292
710	815768	148	2.1418289424549
710	825824	149	1.9677592241723
710	835646	150	0.017677512175869
710	848109	151	-0.00034965496044492
710	857515	152	0.010775773818605
710	867885	153	0.044191273872274
710	877996	154	-0.057118719771969
710	888103	155	0.0058610745309853
710	897838	156	0.054799130391329
710	907261	157	-0.10053856858751
710	916649	158	0.029572949439753
710	926047	159	-0.015094938268886
710	935371	160	0.065017881779932
710	944982	161	-0.033614902442787
710	954979	162	-0.013036123064811
710	964637	163	0.015392085299826
710	974094	164	0.028588711854537
710	983732	165	0.023264053340535
710	993464	166	-0.0046502193412739
710	1002682	167	-0.045664328043349
710	1012054	168	0.038120578571688
710	1021589	169	0.023239121027292
710	1031444	170	-0.051037249432412
710	1041191	171	-0.01513701951364
710	1050723	172	-3.3224083454265
710	1059931	173	-3.0997359526905
710	1069077	174	-2.6254655424165
710	1079717	175	-0.34356746372155
710	1089828	176	2.3583473920822
710	1099966	177	1.8959336883208
710	1110749	178	1.7193524242961
710	1121372	179	1.9171704393788
710	1132139	180	1.5704328636173
710	1142903	181	-0.056417108455207
710	1154222	182	-0.053163604645524
710	1165953	183	0.041410967006813
710	1177856	184	0.065518815093673
710	1189237	185	-0.080125435865485
710	1201428	186	0.054794443787543
710	1213309	187	-0.057296792131384
710	1226412	188	-0.033856744298246
710	1237945	189	0.079325085210149
710	1249559	190	0.027951496974564
710	1261062	191	-0.024941254346631
710	1272438	192	-0.053422985556535
710	1284324	193	0.070654837267938
710	1295651	194	-0.099610895295626
710	1306653	195	0.029969570927786
710	1317983	196	-0.0031394325569263
710	1329232	197	0.011068255887366
710	1340611	198	0.014643460600638
710	1352280	199	-0.045437120818534
710	1364473	200	0.10714787793579
710	1376516	201	-0.090135912834667
710	1388192	202	-0.0084343677293504
710	1400176	203	-0.02200552783208
710	1411885	204	0.067896641769913
710	1423106	205	-4.1806419843412
710	1433956	206	-3.2396218618914
710	1444612	207	0.082602911856957
710	1455006	208	1.5387925075949
710	1465746	209	1.9080233311281
710	1476344	210	1.9168519580201
710	1487142	211	1.9332609521667
710	1497567	212	0.035298479034104
710	1508113	213	0.029998407054228
710	1520027	214	-0.092148821586743
710	1531747	215	0.099681380621623
710	1542536	216	-0.065692067397759
710	1557101	217	0.066004882196431
710	1567023	218	-0.087557169431822
710	1577529	219	0.07977109342348
710	1587867	220	-2.9567636638313
710	1598091	221	-3.1422915550613
710	1610386	222	-2.7242782438876
710	1620798	223	-0.72592885446913
710	1631717	224	2.0932223790583
710	1644834	225	0.044145225675311
710	1655784	226	1.7318347974448
710	1666188	227	1.8150087880925
710	1676927	228	2.0332615476008
710	1690458	229	1.8244015158527
710	1701137	230	-0.035420402137097
710	1713249	231	0.07256509097293
710	1725331	232	-0.065903713367879
710	1738685	233	-0.021831061902921
710	1750147	234	-0.018098436857109
710	1760792	235	0.050962947465013
710	1772120	236	0.023277777389158
710	1782892	237	-0.046611866243182
710	1793858	238	0.077612076119985
710	1804887	239	-0.046727979495191
703	772412	144	3.9976215623826
703	782088	145	5.8976125932665
703	791960	146	7.8901221093786
703	805719	147	9.6863823058078
703	815768	148	11.828211248263
703	825824	149	13.795970472435
703	835646	150	13.813647984611
703	848109	151	13.81329832965
703	857515	152	13.824074103469
703	867885	153	13.868265377341
703	877996	154	13.811146657569
703	888103	155	13.8170077321
703	897838	156	13.871806862492
703	907261	157	13.771268293904
703	916649	158	13.800841243344
703	926047	159	13.785746305075
703	935371	160	13.850764186855
703	944982	161	13.817149284412
703	954979	162	13.804113161347
703	964637	163	13.819505246647
703	974094	164	13.848093958502
703	983732	165	13.871358011842
703	993464	166	13.866707792501
703	1002682	167	13.821043464458
703	1012054	168	13.859164043029
703	1021589	169	13.882403164057
703	1031444	170	13.831365914624
703	1041191	171	13.816228895111
703	1050723	172	10.493820549684
703	1059931	173	7.3940845969936
703	1069077	174	4.7686190545771
703	1079717	175	4.4250515908555
703	1089828	176	6.7833989829378
703	1099966	177	8.6793326712586
703	1110749	178	10.398685095555
703	1121372	179	12.315855534934
703	1132139	180	13.886288398551
703	1142903	181	13.829871290096
703	1154222	182	13.77670768545
703	1165953	183	13.818118652457
703	1177856	184	13.883637467551
703	1189237	185	13.803512031685
703	1201428	186	13.858306475473
703	1213309	187	13.801009683341
703	1226412	188	13.767152939043
703	1237945	189	13.846478024253
703	1249559	190	13.874429521228
703	1261062	191	13.849488266881
703	1272438	192	13.796065281325
703	1284324	193	13.866720118592
703	1295651	194	13.767109223297
703	1306653	195	13.797078794225
703	1317983	196	13.793939361668
703	1329232	197	13.805007617555
703	1340611	198	13.819651078156
703	1352280	199	13.774213957337
703	1364473	200	13.881361835273
703	1376516	201	13.791225922438
703	1388192	202	13.782791554709
703	1400176	203	13.760786026877
703	1411885	204	13.828682668647
703	1423106	205	9.6480406843056
703	1433956	206	6.4084188224142
703	1444612	207	6.4910217342712
703	1455006	208	8.0298142418661
703	1465746	209	9.9378375729942
703	1476344	210	11.854689531014
703	1487142	211	13.787950483181
703	1497567	212	13.823248962215
703	1508113	213	13.853247369269
703	1520027	214	13.761098547683
703	1531747	215	13.860779928304
703	1542536	216	13.795087860906
703	1557101	217	13.861092743103
703	1567023	218	13.773535573671
703	1577529	219	13.853306667095
703	1587867	220	10.896543003263
703	1598091	221	7.754251448202
703	1610386	222	5.0299732043144
703	1620798	223	4.3040443498453
703	1631717	224	6.3972667289036
703	1644834	225	6.4414119545789
703	1655784	226	8.1732467520237
703	1666188	227	9.9882555401162
703	1676927	228	12.021517087717
703	1690458	229	13.84591860357
703	1701137	230	13.810498201433
703	1713249	231	13.883063292406
703	1725331	232	13.817159579038
703	1738685	233	13.795328517135
703	1750147	234	13.777230080278
703	1760792	235	13.828193027743
703	1772120	236	13.851470805132
703	1782892	237	13.804858938889
703	1793858	238	13.882471015009
703	1804887	239	13.835743035513
698	762658	143	826.6
698	772412	144	826.6
698	782088	145	826.6
698	791960	146	826.6
698	805719	147	826.6
698	815768	148	826.6
698	825824	149	826.6
698	835646	150	826.6
698	848109	151	826.6
698	857515	152	826.6
698	867885	153	826.6
698	877996	154	826.6
698	888103	155	826.6
698	897838	156	826.6
698	907261	157	826.6
698	916649	158	826.6
698	926047	159	826.6
698	935371	160	826.6
698	944982	161	826.6
698	954979	162	826.6
698	964637	163	826.6
698	974094	164	826.6
698	983732	165	826.6
698	993464	166	826.6
698	1002682	167	826.6
698	1012054	168	826.6
698	1021589	169	826.6
698	1031444	170	826.6
698	1041191	171	826.6
698	1050723	172	826.6
698	1059931	173	826.6
698	1069077	174	826.6
698	1079717	175	826.6
698	1089828	176	826.15880584231
698	1099966	177	822.85318643923
698	1110749	178	815.25679082289
698	1121372	179	805.59940611446
698	1132139	180	794.18517986063
698	1142903	181	780.97154520351
698	1154222	182	767.14534620364
698	1165953	183	753.31851702396
698	1177856	184	739.49980249863
698	1189237	185	725.67152068351
698	1201428	186	711.86402585237
698	1213309	187	698.04958919115
698	1226412	188	684.23000039233
698	1237945	189	670.42941997007
698	1249559	190	656.60417943947
698	1261062	191	642.75868079874
698	1272438	192	628.91711070532
698	1284324	193	615.10293741299
698	1295651	194	601.27566405724
698	1306653	195	587.47021640356
698	1317983	196	573.64279044032
698	1329232	197	559.8304308679
698	1340611	198	546.02976126526
698	1352280	199	532.2036628813
698	1364473	200	518.37699214049
698	1376516	201	504.52906836855
698	1388192	202	490.70257137634
698	1400176	203	476.88128725614
698	1411885	204	463.05492018173
698	1423106	205	449.25016496997
698	1433956	206	437.57712428566
698	1444612	207	430.17317766803
698	1455006	208	426.67363818971
698	1465746	209	426.6
698	1476344	210	426.6
698	1487142	211	426.6
698	1497567	212	426.6
698	1508113	213	426.6
698	1520027	214	426.6
698	1531747	215	426.6
698	1542536	216	426.6
698	1557101	217	426.6
698	1567023	218	426.6
698	1577529	219	426.6
698	1587867	220	426.6
698	1598091	221	426.6
698	1610386	222	426.6
698	1620798	223	426.6
698	1631717	224	426.6
698	1644834	225	426.93187546716
698	1655784	226	431.96913774998
698	1666188	227	439.30156126982
698	1676927	228	448.44536178521
698	1690458	229	459.5466751042
698	1701137	230	472.6218449002
698	1713249	231	486.43879558066
698	1725331	232	500.26867879053
698	1738685	233	514.10544639496
698	1750147	234	527.92313706051
698	1760792	235	541.73029637923
698	1772120	236	555.56252555695
698	1782892	237	569.37034989396
698	1793858	238	583.18788496497
698	1804887	239	597.00387829802
697	762658	143	238.35872442921
697	772412	144	238.35872442921
697	782088	145	241.43838697243
697	791960	146	246.53529624759
697	805719	147	253.41982137503
697	815768	148	262.25926109549
697	825824	149	273.14423184398
697	835646	150	286.08310800986
697	848109	151	299.87616319442
697	857515	152	313.68255303214
697	867885	153	327.51161167008
697	877996	154	341.35349448297
697	888103	155	355.18938428816
697	897838	156	368.99935193195
697	907261	157	382.83200628943
697	916649	158	396.66150413449
697	926047	159	410.48612133658
697	935371	160	424.32956054337
697	944982	161	438.16173343328
697	954979	162	452.00237735255
697	964637	163	465.80857096413
697	974094	164	479.62692068493
697	983732	165	493.43889071546
697	993464	166	507.2808398667
697	1002682	167	521.11504733775
697	1012054	168	534.95853012761
697	1021589	169	548.78028608373
697	1031444	170	562.62815384968
697	1041191	171	576.46593222749
697	1050723	172	590.29549804966
697	1059931	173	602.27513775022
697	1069077	174	611.03633585379
697	1079717	175	616.93632076496
697	1089828	176	620.88835910385
697	1099966	177	625.32808813646
697	1110749	178	626.6
697	1121372	179	626.6
697	1132139	180	626.6
697	1142903	181	626.6
697	1154222	182	626.6
697	1165953	183	626.6
697	1177856	184	626.6
697	1189237	185	626.6
697	1201428	186	626.6
697	1213309	187	626.6
697	1226412	188	626.6
697	1237945	189	626.6
697	1249559	190	626.6
697	1261062	191	626.6
697	1272438	192	626.6
697	1284324	193	626.6
697	1295651	194	626.6
697	1306653	195	626.6
697	1317983	196	626.6
697	1329232	197	626.6
697	1340611	198	626.6
697	1352280	199	626.6
697	1364473	200	626.6
697	1376516	201	626.6
697	1388192	202	626.6
697	1400176	203	626.6
697	1411885	204	626.6
697	1423106	205	626.6
697	1433956	206	626.6
697	1444612	207	626.88954604742
697	1455006	208	631.68453267202
697	1465746	209	638.94348957992
697	1476344	210	648.05867938833
697	1487142	211	659.05676675299
697	1497567	212	671.95834606797
697	1508113	213	685.79815237464
697	1520027	214	699.62025487697
697	1531747	215	713.44510844478
697	1542536	216	727.27310915298
697	1557101	217	741.107604129
697	1567023	218	754.93639495221
697	1577529	219	768.74497285335
697	1587867	220	782.57100872677
697	1598091	221	794.97773827288
697	1610386	222	804.15607535011
697	1620798	223	810.41527865835
697	1631717	224	814.51918898021
697	1644834	225	820.12312827009
697	1655784	226	823.36701967857
697	1666188	227	823.4
697	1676927	228	823.4
697	1690458	229	823.4
697	1701137	230	823.4
697	1713249	231	823.4
697	1725331	232	823.4
697	1738685	233	823.4
697	1750147	234	823.4
697	1760792	235	823.4
697	1772120	236	823.4
697	1782892	237	823.4
697	1793858	238	823.4
697	1804887	239	823.4
